version 3
run General-2-20230201-21:40:04-18875
attr configname General
attr datetime 20230201-21:40:04
attr datetimef 20230201-214004
attr experiment General
attr inifile omnetpp.ini
attr iterationvars $0=16.67mps
attr iterationvarsd 16.67mps
attr iterationvarsf 16.67mps-
attr measurement $0=16.67mps
attr network simu5g.simulations.NR.networks.SingleCell_Standalone
attr processid 18875
attr repetition 0
attr replication #0
attr resultdir results
attr runnumber 2
attr seedset 0
config image-path ../../../images:../../../../inet4.4/images:../../../../veins_inet/images:../../../../veins-veins-5.2/images
config output-scalar-file-append false
config network simu5g.simulations.NR.networks.SingleCell_Standalone
config sim-time-limit 60s
config warmup-period 1s
config seed-set 0
config output-scalar-file results/General/0.sca
config output-vector-file results/General/0.vec
config seed-set 0
config **.vector-recording false
config **.mobility.constraintAreaMaxX 2000m
config **.mobility.constraintAreaMaxY 2000m
config **.mobility.constraintAreaMinX 0m
config **.mobility.constraintAreaMinY 0m
config **.mobility.constraintAreaMinZ 0m
config **.mobility.constraintAreaMaxZ 0m
config **.mobility.initFromDisplayString false
config **.amcType "\"NRAmc\""
config **.targetBler 0.01
config **.blerShift 5
config **.numBands 6
config **.ueTxPower 26
config **.eNodeBTxPower 40
config *.configurator.config "xmldoc(\"./demo.xml\")"
config *.gnb.mobility.initialX 1000m
config *.gnb.mobility.initialY 0m
config *.numUe 5
config *.ue[0].mobility.initialMovementHeading 180deg
config *.ue[1].mobility.initialMovementHeading 202.5deg
config *.ue[2].mobility.initialMovementHeading 225deg
config *.ue[3].mobility.initialMovementHeading 247.5deg
config *.ue[4].mobility.initialMovementHeading 270deg
config *.ue[*].mobility.constraintAreaMaxX 2005m
config *.ue[*].mobility.constraintAreaMaxY 2005m
config *.ue[*].mobility.constraintAreaMinX 0m
config *.ue[*].mobility.constraintAreaMinY 0m
config *.ue[*].mobility.initFromDisplayString false
config *.ue[*].mobility.initialX 1000m
config *.ue[*].mobility.initialY 0m
config *.ue[*].mobility.initialZ 0m
config *.ue[*].mobility.speed 16.67mps
config *.ue[*].mobility.typename LinearMobility
config *.ue[*].macCellId 0
config *.ue[*].masterId 0
config *.ue[*].nrMacCellId 1
config *.ue[*].nrMasterId 1
config *.ue[*].numApps 1
config *.server.numApps 1
config **.ue[*].app[*].typename UdpVideoStreamClient
config **.ue[*].app[*].serverAddress "\"server\""
config **.ue[*].app[*].localPort 9999
config **.ue[*].app[*].serverPort 3088
config **.ue[*].app[*].startTime "uniform(0s, 0.02s)"
config **.server.app[*].typename UdpVideoStreamServer
config **.server.app[*].videoSize 10MiB
config **.server.app[*].localPort 3088
config **.server.app[*].sendInterval 20ms
config **.server.app[*].packetLen 1000B
config **.mtu 10000B

par SingleCell_Standalone.server.pppg$o[0].channel typename "\"inet.node.ethernet.Eth10G\""
par SingleCell_Standalone.server.pppg$o[0].channel disabled false
attr mutable ""
par SingleCell_Standalone.server.pppg$o[0].channel delay 5e-08s
attr mutable ""
attr unit s
par SingleCell_Standalone.server.pppg$o[0].channel datarate 1e+10bps
attr mutable ""
attr unit bps
par SingleCell_Standalone.server.pppg$o[0].channel ber 0
attr mutable ""
par SingleCell_Standalone.server.pppg$o[0].channel per 0
attr mutable ""
par SingleCell_Standalone.server.pppg$o[0].channel length 10m
attr unit m
par SingleCell_Standalone.router.pppg$o[0].channel typename "\"inet.node.ethernet.Eth10G\""
par SingleCell_Standalone.router.pppg$o[0].channel disabled false
attr mutable ""
par SingleCell_Standalone.router.pppg$o[0].channel delay 5e-08s
attr mutable ""
attr unit s
par SingleCell_Standalone.router.pppg$o[0].channel datarate 1e+10bps
attr mutable ""
attr unit bps
par SingleCell_Standalone.router.pppg$o[0].channel ber 0
attr mutable ""
par SingleCell_Standalone.router.pppg$o[0].channel per 0
attr mutable ""
par SingleCell_Standalone.router.pppg$o[0].channel length 10m
attr unit m
par SingleCell_Standalone.router.pppg$o[1].channel typename "\"inet.node.ethernet.Eth10G\""
par SingleCell_Standalone.router.pppg$o[1].channel disabled false
attr mutable ""
par SingleCell_Standalone.router.pppg$o[1].channel delay 5e-08s
attr mutable ""
attr unit s
par SingleCell_Standalone.router.pppg$o[1].channel datarate 1e+10bps
attr mutable ""
attr unit bps
par SingleCell_Standalone.router.pppg$o[1].channel ber 0
attr mutable ""
par SingleCell_Standalone.router.pppg$o[1].channel per 0
attr mutable ""
par SingleCell_Standalone.router.pppg$o[1].channel length 10m
attr unit m
par SingleCell_Standalone.upf.filterGate$o.channel typename "\"inet.node.ethernet.Eth10G\""
par SingleCell_Standalone.upf.filterGate$o.channel disabled false
attr mutable ""
par SingleCell_Standalone.upf.filterGate$o.channel delay 5e-08s
attr mutable ""
attr unit s
par SingleCell_Standalone.upf.filterGate$o.channel datarate 1e+10bps
attr mutable ""
attr unit bps
par SingleCell_Standalone.upf.filterGate$o.channel ber 0
attr mutable ""
par SingleCell_Standalone.upf.filterGate$o.channel per 0
attr mutable ""
par SingleCell_Standalone.upf.filterGate$o.channel length 10m
attr unit m
par SingleCell_Standalone.upf.pppg$o[0].channel typename "\"inet.node.ethernet.Eth10G\""
par SingleCell_Standalone.upf.pppg$o[0].channel disabled false
attr mutable ""
par SingleCell_Standalone.upf.pppg$o[0].channel delay 5e-08s
attr mutable ""
attr unit s
par SingleCell_Standalone.upf.pppg$o[0].channel datarate 1e+10bps
attr mutable ""
attr unit bps
par SingleCell_Standalone.upf.pppg$o[0].channel ber 0
attr mutable ""
par SingleCell_Standalone.upf.pppg$o[0].channel per 0
attr mutable ""
par SingleCell_Standalone.upf.pppg$o[0].channel length 10m
attr unit m
par SingleCell_Standalone.iUpf.pppg$o[0].channel typename "\"inet.node.ethernet.Eth10G\""
par SingleCell_Standalone.iUpf.pppg$o[0].channel disabled false
attr mutable ""
par SingleCell_Standalone.iUpf.pppg$o[0].channel delay 5e-08s
attr mutable ""
attr unit s
par SingleCell_Standalone.iUpf.pppg$o[0].channel datarate 1e+10bps
attr mutable ""
attr unit bps
par SingleCell_Standalone.iUpf.pppg$o[0].channel ber 0
attr mutable ""
par SingleCell_Standalone.iUpf.pppg$o[0].channel per 0
attr mutable ""
par SingleCell_Standalone.iUpf.pppg$o[0].channel length 10m
attr unit m
par SingleCell_Standalone.iUpf.pppg$o[1].channel typename "\"inet.node.ethernet.Eth10G\""
par SingleCell_Standalone.iUpf.pppg$o[1].channel disabled false
attr mutable ""
par SingleCell_Standalone.iUpf.pppg$o[1].channel delay 5e-08s
attr mutable ""
attr unit s
par SingleCell_Standalone.iUpf.pppg$o[1].channel datarate 1e+10bps
attr mutable ""
attr unit bps
par SingleCell_Standalone.iUpf.pppg$o[1].channel ber 0
attr mutable ""
par SingleCell_Standalone.iUpf.pppg$o[1].channel per 0
attr mutable ""
par SingleCell_Standalone.iUpf.pppg$o[1].channel length 10m
attr unit m
par SingleCell_Standalone.gnb.ppp$o.channel typename "\"inet.node.ethernet.Eth10G\""
par SingleCell_Standalone.gnb.ppp$o.channel disabled false
attr mutable ""
par SingleCell_Standalone.gnb.ppp$o.channel delay 5e-08s
attr mutable ""
attr unit s
par SingleCell_Standalone.gnb.ppp$o.channel datarate 1e+10bps
attr mutable ""
attr unit bps
par SingleCell_Standalone.gnb.ppp$o.channel ber 0
attr mutable ""
par SingleCell_Standalone.gnb.ppp$o.channel per 0
attr mutable ""
par SingleCell_Standalone.gnb.ppp$o.channel length 10m
attr unit m
par SingleCell_Standalone.channelControl typename "\"simu5g.world.radio.LteChannelControl\""
par SingleCell_Standalone.channelControl coreDebug false
par SingleCell_Standalone.channelControl pMax 20mW
attr unit mW
par SingleCell_Standalone.channelControl sat -110dBm
attr unit dBm
par SingleCell_Standalone.channelControl alpha 2
par SingleCell_Standalone.channelControl carrierFrequency 2.4e+09Hz
attr unit Hz
par SingleCell_Standalone.channelControl numChannels 1
par SingleCell_Standalone.channelControl propagationModel "\"FreeSpaceModel\""
attr enum FreeSpaceModel,TwoRayGroundModel,RiceModel,RayleighModel,NakagamiModel,LogNormalShadowingModel
par SingleCell_Standalone.routingRecorder typename "\"inet.networklayer.ipv4.RoutingTableRecorder\""
par SingleCell_Standalone.routingRecorder enabled true
par SingleCell_Standalone.configurator typename "\"inet.networklayer.configurator.ipv4.Ipv4NetworkConfigurator\""
par SingleCell_Standalone.configurator minLinkWeight 0.001
par SingleCell_Standalone.configurator configureIsolatedNetworksSeparatly false
par SingleCell_Standalone.configurator config "<config>...</config> at /home/simu5g/simu5g-workspace/simu5G/simulations/NR/TESM-proj//./demo.xml:1"
par SingleCell_Standalone.configurator assignAddresses true
par SingleCell_Standalone.configurator assignUniqueAddresses true
par SingleCell_Standalone.configurator assignDisjunctSubnetAddresses true
par SingleCell_Standalone.configurator addStaticRoutes true
par SingleCell_Standalone.configurator addDefaultRoutes true
par SingleCell_Standalone.configurator addSubnetRoutes true
par SingleCell_Standalone.configurator addDirectRoutes true
par SingleCell_Standalone.configurator optimizeRoutes true
par SingleCell_Standalone.configurator dumpTopology false
par SingleCell_Standalone.configurator dumpLinks false
par SingleCell_Standalone.configurator dumpAddresses false
par SingleCell_Standalone.configurator dumpRoutes false
par SingleCell_Standalone.configurator dumpConfig "\"\""
par SingleCell_Standalone.binder typename "\"simu5g.common.binder.Binder\""
par SingleCell_Standalone.binder blerShift 5
par SingleCell_Standalone.binder maxDataRatePerRb 1.16Mbps
attr unit Mbps
par SingleCell_Standalone.binder printTrafficGeneratorConfig false
par SingleCell_Standalone.carrierAggregation.componentCarrier[0] typename "\"simu5g.common.carrierAggregation.ComponentCarrier\""
par SingleCell_Standalone.carrierAggregation.componentCarrier[0] carrierFrequency 2GHz
attr unit GHz
par SingleCell_Standalone.carrierAggregation.componentCarrier[0] numBands 6
par SingleCell_Standalone.carrierAggregation.componentCarrier[0] numerologyIndex 0
par SingleCell_Standalone.carrierAggregation.componentCarrier[0] useTdd false
par SingleCell_Standalone.carrierAggregation.componentCarrier[0] tddNumSymbolsDl 7
par SingleCell_Standalone.carrierAggregation.componentCarrier[0] tddNumSymbolsUl 7
par SingleCell_Standalone.carrierAggregation typename "\"simu5g.common.carrierAggregation.CarrierAggregation\""
par SingleCell_Standalone.carrierAggregation numComponentCarriers 1
par SingleCell_Standalone.server.pppg$i[0].channel typename "\"ned.IdealChannel\""
par SingleCell_Standalone.server.ppp[0].phys$o.channel typename "\"ned.IdealChannel\""
par SingleCell_Standalone.server.interfaceTable typename "\"inet.networklayer.common.InterfaceTable\""
par SingleCell_Standalone.server.interfaceTable displayAddresses false
par SingleCell_Standalone.server.cb typename "\"inet.common.MessageDispatcher\""
par SingleCell_Standalone.server.cb displayStringTextFormat "\"processed %p pk (%l)\""
par SingleCell_Standalone.server.cb forwardServiceRegistration true
par SingleCell_Standalone.server.cb forwardProtocolRegistration true
par SingleCell_Standalone.server.bl typename "\"inet.common.MessageDispatcher\""
par SingleCell_Standalone.server.bl displayStringTextFormat "\"processed %p pk (%l)\""
par SingleCell_Standalone.server.bl forwardServiceRegistration true
par SingleCell_Standalone.server.bl forwardProtocolRegistration true
par SingleCell_Standalone.server.li typename "\"inet.common.MessageDispatcher\""
par SingleCell_Standalone.server.li displayStringTextFormat "\"processed %p pk (%l)\""
par SingleCell_Standalone.server.li forwardServiceRegistration true
par SingleCell_Standalone.server.li forwardProtocolRegistration true
par SingleCell_Standalone.server.lo[0].upperLayerIn.channel typename "\"ned.IdealChannel\""
par SingleCell_Standalone.server.lo[0].lo.upperLayerOut.channel typename "\"ned.IdealChannel\""
par SingleCell_Standalone.server.lo[0].lo typename "\"inet.linklayer.loopback.Loopback\""
par SingleCell_Standalone.server.lo[0].lo interfaceTableModule "\"SingleCell_Standalone.server.interfaceTable\""
par SingleCell_Standalone.server.lo[0].lo mtu 10000B
attr unit B
scalar SingleCell_Standalone.server.lo[0].lo rcvdPkFromHl:count 0
attr interpolationmode none
attr recordingmode count
attr source packetReceivedFromUpper
attr title "packets received from higher layer, count"
scalar SingleCell_Standalone.server.lo[0].lo rcvdPkFromHl:sum(packetBytes) 0
attr interpolationmode none
attr recordingmode sum(packetBytes)
attr source packetReceivedFromUpper
attr title "packets received from higher layer, sum(packetBytes)"
scalar SingleCell_Standalone.server.lo[0].lo passedUpPk:count 0
attr interpolationmode none
attr recordingmode count
attr source packetSentToUpper
attr title "packets passed to higher layer, count"
scalar SingleCell_Standalone.server.lo[0].lo passedUpPk:sum(packetBytes) 0
attr interpolationmode none
attr recordingmode sum(packetBytes)
attr source packetSentToUpper
attr title "packets passed to higher layer, sum(packetBytes)"
par SingleCell_Standalone.server.lo[0] typename "\"inet.linklayer.loopback.LoopbackInterface\""
par SingleCell_Standalone.server.lo[0] displayStringTextFormat "\"%a (%i)\\n%m\""
par SingleCell_Standalone.server.lo[0] recordPcap false
par SingleCell_Standalone.server.lo[0] numPcapRecorders 0
par SingleCell_Standalone.server.lo[0] interfaceTableModule "\"SingleCell_Standalone.server.interfaceTable\""
scalar SingleCell_Standalone.server.lo[0] packetDropInterfaceDown:count 0
attr interpolationmode none
attr recordingmode count
attr source packetDropReasonIsInterfaceDown(packetDropped)
attr title "packet drops: interface down, count"
scalar SingleCell_Standalone.server.lo[0] packetDropInterfaceDown:sum(packetBytes) 0
attr interpolationmode none
attr recordingmode sum(packetBytes)
attr source packetDropReasonIsInterfaceDown(packetDropped)
attr title "packet drops: interface down, sum(packetBytes)"
scalar SingleCell_Standalone.server.lo[0] packetDropNoCarrier:count 0
attr interpolationmode none
attr recordingmode count
attr source packetDropReasonIsNoCarrier(packetDropped)
attr title "packet drops: no carrier, count"
scalar SingleCell_Standalone.server.lo[0] packetDropNoCarrier:sum(packetBytes) 0
attr interpolationmode none
attr recordingmode sum(packetBytes)
attr source packetDropReasonIsNoCarrier(packetDropped)
attr title "packet drops: no carrier, sum(packetBytes)"
par SingleCell_Standalone.server.ppp[0].phys$i.channel typename "\"ned.IdealChannel\""
par SingleCell_Standalone.server.ppp[0].ppp.phys$o.channel typename "\"ned.IdealChannel\""
par SingleCell_Standalone.server.ppp[0].ppp.upperLayerOut.channel typename "\"ned.IdealChannel\""
par SingleCell_Standalone.server.ppp[0].upperLayerIn.channel typename "\"ned.IdealChannel\""
par SingleCell_Standalone.server.ppp[0].queue typename "\"inet.queueing.queue.DropTailQueue\""
par SingleCell_Standalone.server.ppp[0].queue displayStringTextFormat "\"contains %p pk (%l) pushed %u\\npulled %o removed %r dropped %d\""
par SingleCell_Standalone.server.ppp[0].queue packetCapacity 10000
par SingleCell_Standalone.server.ppp[0].queue dataCapacity -1b
attr unit b
par SingleCell_Standalone.server.ppp[0].queue dropperClass "\"inet::queueing::PacketAtCollectionEndDropper\""
par SingleCell_Standalone.server.ppp[0].queue comparatorClass "\"\""
par SingleCell_Standalone.server.ppp[0].queue bufferModule "\"\""
scalar SingleCell_Standalone.server.ppp[0].queue queueLength:last 0
attr autoWarmupFilter false
attr interpolationmode sample-hold
attr recordingmode last
attr source "warmup(atomic(constant0(packetPushEnded) + count(packetPushStarted) - count(packetPulled) - count(packetRemoved) - count(packetDropped)))"
attr title "queue length, last"
attr unit pk
scalar SingleCell_Standalone.server.ppp[0].queue queueLength:max 1
attr autoWarmupFilter false
attr interpolationmode sample-hold
attr recordingmode max
attr source "warmup(atomic(constant0(packetPushEnded) + count(packetPushStarted) - count(packetPulled) - count(packetRemoved) - count(packetDropped)))"
attr title "queue length, max"
attr unit pk
scalar SingleCell_Standalone.server.ppp[0].queue queueLength:timeavg 3.8524570955229e-05
attr autoWarmupFilter false
attr interpolationmode sample-hold
attr recordingmode timeavg
attr source "warmup(atomic(constant0(packetPushEnded) + count(packetPushStarted) - count(packetPulled) - count(packetRemoved) - count(packetDropped)))"
attr title "queue length, timeavg"
attr unit pk
scalar SingleCell_Standalone.server.ppp[0].queue queueBitLength:last 0
attr autoWarmupFilter false
attr interpolationmode sample-hold
attr recordingmode last
attr source "warmup(atomic(constant0(packetPushEnded) + sum(packetLength(packetPushStarted)) - sum(packetLength(packetPulled)) - sum(packetLength(packetRemoved)) - sum(packetLength(packetDropped))))"
attr title "queue bit length, last"
attr unit b
scalar SingleCell_Standalone.server.ppp[0].queue queueBitLength:max 8224
attr autoWarmupFilter false
attr interpolationmode sample-hold
attr recordingmode max
attr source "warmup(atomic(constant0(packetPushEnded) + sum(packetLength(packetPushStarted)) - sum(packetLength(packetPulled)) - sum(packetLength(packetRemoved)) - sum(packetLength(packetDropped))))"
attr title "queue bit length, max"
attr unit b
scalar SingleCell_Standalone.server.ppp[0].queue queueBitLength:timeavg 0.31682607153581
attr autoWarmupFilter false
attr interpolationmode sample-hold
attr recordingmode timeavg
attr source "warmup(atomic(constant0(packetPushEnded) + sum(packetLength(packetPushStarted)) - sum(packetLength(packetPulled)) - sum(packetLength(packetRemoved)) - sum(packetLength(packetDropped))))"
attr title "queue bit length, timeavg"
attr unit b
statistic SingleCell_Standalone.server.ppp[0].queue queueingTime:histogram
field count 14750
field mean 1.5407999999999e-07
field stddev 3.0817044663288e-07
field min 0
field max 7.704e-07
field sum 0.0022726799999998
field sqrsum 1.7508726719999e-09
attr interpolationmode none
attr recordingmode histogram
attr source queueingTime(packetPulled)
attr title "queueing times"
attr unit s
bin	-inf	0
bin	0	11800
bin	2e-08	0
bin	4e-08	0
bin	6e-08	0
bin	8e-08	0
bin	1e-07	0
bin	1.2e-07	0
bin	1.4e-07	0
bin	1.6e-07	0
bin	1.8e-07	0
bin	2e-07	0
bin	2.2e-07	0
bin	2.4e-07	0
bin	2.6e-07	0
bin	2.8e-07	0
bin	3e-07	0
bin	3.2e-07	0
bin	3.4e-07	0
bin	3.6e-07	0
bin	3.8e-07	0
bin	4e-07	0
bin	4.2e-07	0
bin	4.4e-07	0
bin	4.6e-07	0
bin	4.8e-07	0
bin	5e-07	0
bin	5.2e-07	0
bin	5.4e-07	0
bin	5.6e-07	0
bin	5.8e-07	0
bin	6e-07	0
bin	6.2e-07	0
bin	6.4e-07	0
bin	6.6e-07	0
bin	6.8e-07	0
bin	7e-07	0
bin	7.2e-07	0
bin	7.4e-07	0
bin	7.6e-07	2950
bin	7.8e-07	0
bin	8e-07	0
bin	8.2e-07	0
bin	8.4e-07	0
bin	8.6e-07	0
bin	8.8e-07	0
bin	9e-07	0
bin	9.2e-07	0
bin	9.4e-07	0
bin	9.6e-07	0
bin	9.8e-07	0
scalar SingleCell_Standalone.server.ppp[0].queue outgoingPackets:count 14750
attr recordingmode count
attr source packetPulled
attr title "outgoing packets, count"
attr unit pk
scalar SingleCell_Standalone.server.ppp[0].queue outgoingPacketLengths:sum 121304000
attr interpolationmode none
attr recordingmode sum
attr source packetLength(packetPulled)
attr title "outgoing packet lengths, sum"
attr unit b
statistic SingleCell_Standalone.server.ppp[0].queue outgoingPacketLengths:histogram
field count 14750
field mean 8224
field stddev 0
field min 8224
field max 8224
field sum 121304000
field sqrsum 997604096000
attr interpolationmode none
attr recordingmode histogram
attr source packetLength(packetPulled)
attr title "outgoing packet lengths"
attr unit b
bin	-inf	0
bin	8223	0
bin	8224	14750
bin	8225	0
statistic SingleCell_Standalone.server.ppp[0].queue flowQueueingTime:histogram
field count 0
field mean -nan
field stddev nan
field min nan
field max nan
field sum 0
field sqrsum 0
attr interpolationmode none
attr recordingmode histogram
attr source queueingTime(demuxFlow(packetPulled))
attr title "flow queueing times"
attr unit s
bin	-inf	0
bin	0	0
bin	1	0
scalar SingleCell_Standalone.server.ppp[0].queue incomingPackets:count 14750
attr recordingmode count
attr source packetPushStarted
attr title "incoming packets, count"
attr unit pk
scalar SingleCell_Standalone.server.ppp[0].queue incomingPacketLengths:sum 121304000
attr interpolationmode none
attr recordingmode sum
attr source packetLength(packetPushStarted)
attr title "incoming packet lengths, sum"
attr unit b
statistic SingleCell_Standalone.server.ppp[0].queue incomingPacketLengths:histogram
field count 14750
field mean 8224
field stddev 0
field min 8224
field max 8224
field sum 121304000
field sqrsum 997604096000
attr interpolationmode none
attr recordingmode histogram
attr source packetLength(packetPushStarted)
attr title "incoming packet lengths"
attr unit b
bin	-inf	0
bin	8223	0
bin	8224	14750
bin	8225	0
scalar SingleCell_Standalone.server.ppp[0].queue droppedPacketsQueueOverflow:count 0
attr interpolationmode none
attr recordingmode count
attr source packetDropReasonIsQueueOverflow(packetDropped)
attr title "dropped packets: queue overflow, count"
attr unit pk
scalar SingleCell_Standalone.server.ppp[0].queue droppedPacketLengthsQueueOverflow:sum 0
attr interpolationmode none
attr recordingmode sum
attr source packetLength(packetDropReasonIsQueueOverflow(packetDropped))
attr title "dropped packet lengths: queue overflow, sum"
attr unit b
par SingleCell_Standalone.server.ppp[0].ppp typename "\"inet.linklayer.ppp.Ppp\""
par SingleCell_Standalone.server.ppp[0].ppp interfaceTableModule "\"SingleCell_Standalone.server.interfaceTable\""
par SingleCell_Standalone.server.ppp[0].ppp displayStringTextFormat "\"rate: %b\\nsent: %s, rcvd: %r\\nqueue: %q, drop: %d\""
par SingleCell_Standalone.server.ppp[0].ppp sendRawBytes false
par SingleCell_Standalone.server.ppp[0].ppp mtu 10000B
attr unit B
par SingleCell_Standalone.server.ppp[0].ppp stopOperationExtraTime -1s
attr unit s
par SingleCell_Standalone.server.ppp[0].ppp stopOperationTimeout 2s
attr unit s
scalar SingleCell_Standalone.server.ppp[0].ppp transmissionState:timeavg 0.0002070245635444
attr interpolationmode sample-hold
attr recordingmode timeavg
attr source transmissionStateChanged
attr title "tx state, timeavg"
scalar SingleCell_Standalone.server.ppp[0].ppp rxPkOk:count 0
attr interpolationmode none
attr recordingmode count
attr source rxPkOk
attr title "packets received OK, count"
scalar SingleCell_Standalone.server.ppp[0].ppp rxPkOk:sum(packetBytes) 0
attr interpolationmode none
attr recordingmode sum(packetBytes)
attr source rxPkOk
attr title "packets received OK, sum(packetBytes)"
scalar SingleCell_Standalone.server.ppp[0].ppp txPk:count 14750
attr interpolationmode none
attr recordingmode count
attr source packetSentToLower
attr title "packets transmitted, count"
scalar SingleCell_Standalone.server.ppp[0].ppp txPk:sum(packetBytes) 15266250
attr interpolationmode none
attr recordingmode sum(packetBytes)
attr source packetSentToLower
attr title "packets transmitted, sum(packetBytes)"
scalar SingleCell_Standalone.server.ppp[0].ppp rcvdPkFromHl:count 0
attr interpolationmode none
attr recordingmode count
attr source packetReceivedFromUpper
attr title "packets received from higher layer, count"
scalar SingleCell_Standalone.server.ppp[0].ppp rcvdPkFromHl:sum(packetBytes) 0
attr interpolationmode none
attr recordingmode sum(packetBytes)
attr source packetReceivedFromUpper
attr title "packets received from higher layer, sum(packetBytes)"
scalar SingleCell_Standalone.server.ppp[0].ppp passedUpPk:count 0
attr interpolationmode none
attr recordingmode count
attr source packetSentToUpper
attr title "packets passed to higher layer, count"
scalar SingleCell_Standalone.server.ppp[0].ppp passedUpPk:sum(packetBytes) 0
attr interpolationmode none
attr recordingmode sum(packetBytes)
attr source packetSentToUpper
attr title "packets passed to higher layer, sum(packetBytes)"
scalar SingleCell_Standalone.server.ppp[0].ppp packetDropIncorrectlyReceived:count 0
attr interpolationmode none
attr recordingmode count
attr source packetDropReasonIsIncorrectlyReceived(packetDropped)
attr title "packet drop: incorrectly received, count"
scalar SingleCell_Standalone.server.ppp[0].ppp packetDropIncorrectlyReceived:sum(packetBytes) 0
attr interpolationmode none
attr recordingmode sum(packetBytes)
attr source packetDropReasonIsIncorrectlyReceived(packetDropped)
attr title "packet drop: incorrectly received, sum(packetBytes)"
scalar SingleCell_Standalone.server.ppp[0].ppp packetDropInterfaceDown:count 0
attr interpolationmode none
attr recordingmode count
attr source packetDropReasonIsInterfaceDown(packetDropped)
attr title "packet drop: interface down, count"
scalar SingleCell_Standalone.server.ppp[0].ppp packetDropInterfaceDown:sum(packetBytes) 0
attr interpolationmode none
attr recordingmode sum(packetBytes)
attr source packetDropReasonIsInterfaceDown(packetDropped)
attr title "packet drop: interface down, sum(packetBytes)"
par SingleCell_Standalone.server.ppp[0] typename "\"inet.linklayer.ppp.PppInterface\""
par SingleCell_Standalone.server.ppp[0] displayStringTextFormat "\"%a (%i)\\n%m\""
par SingleCell_Standalone.server.ppp[0] recordPcap false
par SingleCell_Standalone.server.ppp[0] numPcapRecorders 0
par SingleCell_Standalone.server.ppp[0] interfaceTableModule "\"SingleCell_Standalone.server.interfaceTable\""
scalar SingleCell_Standalone.server.ppp[0] packetDropInterfaceDown:count 0
attr interpolationmode none
attr recordingmode count
attr source packetDropReasonIsInterfaceDown(packetDropped)
attr title "packet drops: interface down, count"
scalar SingleCell_Standalone.server.ppp[0] packetDropInterfaceDown:sum(packetBytes) 0
attr interpolationmode none
attr recordingmode sum(packetBytes)
attr source packetDropReasonIsInterfaceDown(packetDropped)
attr title "packet drops: interface down, sum(packetBytes)"
scalar SingleCell_Standalone.server.ppp[0] packetDropNoCarrier:count 0
attr interpolationmode none
attr recordingmode count
attr source packetDropReasonIsNoCarrier(packetDropped)
attr title "packet drops: no carrier, count"
scalar SingleCell_Standalone.server.ppp[0] packetDropNoCarrier:sum(packetBytes) 0
attr interpolationmode none
attr recordingmode sum(packetBytes)
attr source packetDropReasonIsNoCarrier(packetDropped)
attr title "packet drops: no carrier, sum(packetBytes)"
par SingleCell_Standalone.server.ipv4.transportIn.channel typename "\"ned.IdealChannel\""
par SingleCell_Standalone.server.ipv4.up.out[0].channel typename "\"ned.IdealChannel\""
par SingleCell_Standalone.server.ipv4.lp.out[2].channel typename "\"ned.IdealChannel\""
par SingleCell_Standalone.server.ipv4.ifIn.channel typename "\"ned.IdealChannel\""
par SingleCell_Standalone.server.ipv4.configurator typename "\"inet.networklayer.configurator.ipv4.Ipv4NodeConfigurator\""
par SingleCell_Standalone.server.ipv4.configurator interfaceTableModule "\"SingleCell_Standalone.server.interfaceTable\""
par SingleCell_Standalone.server.ipv4.configurator routingTableModule "\"SingleCell_Standalone.server.ipv4.routingTable\""
par SingleCell_Standalone.server.ipv4.configurator networkConfiguratorModule "\"configurator\""
par SingleCell_Standalone.server.ipv4.configurator configureRoutingTable true
par SingleCell_Standalone.server.ipv4.routingTable typename "\"inet.networklayer.ipv4.Ipv4RoutingTable\""
par SingleCell_Standalone.server.ipv4.routingTable interfaceTableModule "\"SingleCell_Standalone.server.interfaceTable\""
par SingleCell_Standalone.server.ipv4.routingTable routerId "\"auto\""
par SingleCell_Standalone.server.ipv4.routingTable netmaskRoutes "\"*\""
par SingleCell_Standalone.server.ipv4.routingTable forwarding false
par SingleCell_Standalone.server.ipv4.routingTable multicastForwarding false
par SingleCell_Standalone.server.ipv4.routingTable useAdminDist false
par SingleCell_Standalone.server.ipv4.routingTable routingFile "\"\""
par SingleCell_Standalone.server.ipv4.natTable typename "\"inet.networklayer.ipv4.Ipv4NatTable\""
par SingleCell_Standalone.server.ipv4.natTable networkProtocolModule "\"^.ip\""
par SingleCell_Standalone.server.ipv4.natTable config "<config/> at content:1"
par SingleCell_Standalone.server.ipv4.up typename "\"inet.common.MessageDispatcher\""
par SingleCell_Standalone.server.ipv4.up displayStringTextFormat "\"processed %p pk (%l)\""
par SingleCell_Standalone.server.ipv4.up forwardServiceRegistration true
par SingleCell_Standalone.server.ipv4.up forwardProtocolRegistration true
par SingleCell_Standalone.server.ipv4.igmp typename "\"inet.networklayer.ipv4.Igmpv2\""
par SingleCell_Standalone.server.ipv4.igmp interfaceTableModule "\"SingleCell_Standalone.server.interfaceTable\""
par SingleCell_Standalone.server.ipv4.igmp routingTableModule "\"SingleCell_Standalone.server.ipv4.routingTable\""
par SingleCell_Standalone.server.ipv4.igmp crcMode "\"declared\""
attr enum declared,computed
par SingleCell_Standalone.server.ipv4.igmp enabled true
par SingleCell_Standalone.server.ipv4.igmp robustnessVariable 2
par SingleCell_Standalone.server.ipv4.igmp queryInterval 125s
attr unit s
par SingleCell_Standalone.server.ipv4.igmp queryResponseInterval 10s
attr unit s
par SingleCell_Standalone.server.ipv4.igmp groupMembershipInterval 260s
attr unit s
par SingleCell_Standalone.server.ipv4.igmp otherQuerierPresentInterval 255s
attr unit s
par SingleCell_Standalone.server.ipv4.igmp startupQueryInterval 31.25s
attr unit s
par SingleCell_Standalone.server.ipv4.igmp startupQueryCount 2
par SingleCell_Standalone.server.ipv4.igmp lastMemberQueryInterval 1s
attr unit s
par SingleCell_Standalone.server.ipv4.igmp lastMemberQueryCount 2
par SingleCell_Standalone.server.ipv4.igmp unsolicitedReportInterval 10s
attr unit s
par SingleCell_Standalone.server.ipv4.icmp typename "\"inet.networklayer.ipv4.Icmp\""
par SingleCell_Standalone.server.ipv4.icmp interfaceTableModule "\"SingleCell_Standalone.server.interfaceTable\""
par SingleCell_Standalone.server.ipv4.icmp routingTableModule "\"SingleCell_Standalone.server.ipv4.routingTable\""
par SingleCell_Standalone.server.ipv4.icmp crcMode "\"declared\""
attr enum declared,computed
attr mutable ""
par SingleCell_Standalone.server.ipv4.icmp quoteLength 8B
attr mutable ""
attr unit B
par SingleCell_Standalone.server.ipv4.mp typename "\"inet.common.MessageDispatcher\""
par SingleCell_Standalone.server.ipv4.mp displayStringTextFormat "\"processed %p pk (%l)\""
par SingleCell_Standalone.server.ipv4.mp forwardServiceRegistration true
par SingleCell_Standalone.server.ipv4.mp forwardProtocolRegistration true
par SingleCell_Standalone.server.ipv4.ip typename "\"inet.networklayer.ipv4.Ipv4\""
par SingleCell_Standalone.server.ipv4.ip interfaceTableModule "\"SingleCell_Standalone.server.interfaceTable\""
par SingleCell_Standalone.server.ipv4.ip routingTableModule "\"SingleCell_Standalone.server.ipv4.routingTable\""
par SingleCell_Standalone.server.ipv4.ip arpModule "\"SingleCell_Standalone.server.ipv4.arp\""
par SingleCell_Standalone.server.ipv4.ip icmpModule "\"SingleCell_Standalone.server.ipv4.icmp\""
par SingleCell_Standalone.server.ipv4.ip crcMode "\"declared\""
attr enum declared,computed
par SingleCell_Standalone.server.ipv4.ip timeToLive 32
par SingleCell_Standalone.server.ipv4.ip multicastTimeToLive 32
par SingleCell_Standalone.server.ipv4.ip fragmentTimeout 60s
attr unit s
par SingleCell_Standalone.server.ipv4.ip limitedBroadcast false
par SingleCell_Standalone.server.ipv4.ip directBroadcastInterfaces "\"\""
scalar SingleCell_Standalone.server.ipv4.ip packetDropAddressResolutionFailed:count 0
attr interpolationmode none
attr recordingmode count
attr source packetDropReasonIsAddressResolutionFailed(packetDropped)
attr title "packet drop: address resolution failed, count"
scalar SingleCell_Standalone.server.ipv4.ip packetDropAddressResolutionFailed:sum(packetBytes) 0
attr interpolationmode none
attr recordingmode sum(packetBytes)
attr source packetDropReasonIsAddressResolutionFailed(packetDropped)
attr title "packet drop: address resolution failed, sum(packetBytes)"
scalar SingleCell_Standalone.server.ipv4.ip packetDropHopLimitReached:count 0
attr interpolationmode none
attr recordingmode count
attr source packetDropReasonIsHopLimitReached(packetDropped)
attr title "packet drop: hop limit reached, count"
scalar SingleCell_Standalone.server.ipv4.ip packetDropHopLimitReached:sum(packetBytes) 0
attr interpolationmode none
attr recordingmode sum(packetBytes)
attr source packetDropReasonIsHopLimitReached(packetDropped)
attr title "packet drop: hop limit reached, sum(packetBytes)"
scalar SingleCell_Standalone.server.ipv4.ip packetDropForwardingDisabled:count 0
attr interpolationmode none
attr recordingmode count
attr source packetDropReasonIsForwardingDisabled(packetDropped)
attr title "packet drop: forwarding disabled, count"
scalar SingleCell_Standalone.server.ipv4.ip packetDropForwardingDisabled:sum(packetBytes) 0
attr interpolationmode none
attr recordingmode sum(packetBytes)
attr source packetDropReasonIsForwardingDisabled(packetDropped)
attr title "packet drop: forwarding disabled, sum(packetBytes)"
scalar SingleCell_Standalone.server.ipv4.ip packetDropNoInterfaceFound:count 0
attr interpolationmode none
attr recordingmode count
attr source packetDropReasonIsNoInterfaceFound(packetDropped)
attr title "packet drop: no interface found, count"
scalar SingleCell_Standalone.server.ipv4.ip packetDropNoInterfaceFound:sum(packetBytes) 0
attr interpolationmode none
attr recordingmode sum(packetBytes)
attr source packetDropReasonIsNoInterfaceFound(packetDropped)
attr title "packet drop: no interface found, sum(packetBytes)"
scalar SingleCell_Standalone.server.ipv4.ip packetDropNoRouteFound:count 0
attr interpolationmode none
attr recordingmode count
attr source packetDropReasonIsNoRouteFound(packetDropped)
attr title "packet drop: no route found, count"
scalar SingleCell_Standalone.server.ipv4.ip packetDropNoRouteFound:sum(packetBytes) 0
attr interpolationmode none
attr recordingmode sum(packetBytes)
attr source packetDropReasonIsNoRouteFound(packetDropped)
attr title "packet drop: no route found, sum(packetBytes)"
scalar SingleCell_Standalone.server.ipv4.ip packetDropUndefined:count 0
attr interpolationmode none
attr recordingmode count
attr source packetDropReasonIsUndefined(packetDropped)
attr title "packet drop: undefined, count"
scalar SingleCell_Standalone.server.ipv4.ip packetDropUndefined:sum(packetBytes) 0
attr interpolationmode none
attr recordingmode sum(packetBytes)
attr source packetDropReasonIsUndefined(packetDropped)
attr title "packet drop: undefined, sum(packetBytes)"
par SingleCell_Standalone.server.ipv4.arp typename "\"inet.networklayer.arp.ipv4.Arp\""
par SingleCell_Standalone.server.ipv4.arp interfaceTableModule "\"SingleCell_Standalone.server.interfaceTable\""
par SingleCell_Standalone.server.ipv4.arp routingTableModule "\"SingleCell_Standalone.server.ipv4.routingTable\""
par SingleCell_Standalone.server.ipv4.arp retryTimeout 1s
attr unit s
par SingleCell_Standalone.server.ipv4.arp retryCount 3
par SingleCell_Standalone.server.ipv4.arp cacheTimeout 120s
attr unit s
par SingleCell_Standalone.server.ipv4.arp proxyArpInterfaces "\"\""
scalar SingleCell_Standalone.server.ipv4.arp arpResolutionFailed:count 0
attr recordingmode count
attr title "ARP failed resolutions, count"
scalar SingleCell_Standalone.server.ipv4.arp arpResolutionCompleted:count 0
attr recordingmode count
attr title "ARP completed resolutions, count"
scalar SingleCell_Standalone.server.ipv4.arp arpResolutionInitiated:count 0
attr recordingmode count
attr title "ARP initiated resolutions, count"
scalar SingleCell_Standalone.server.ipv4.arp arpReplySent:count 0
attr recordingmode count
attr source arpReplySent
attr title "ARP replies sent, count"
scalar SingleCell_Standalone.server.ipv4.arp arpReplySent:sum(packetBytes) 0
attr recordingmode sum(packetBytes)
attr source arpReplySent
attr title "ARP replies sent, sum(packetBytes)"
scalar SingleCell_Standalone.server.ipv4.arp arpRequestSent:count 0
attr recordingmode count
attr source arpRequestSent
attr title "ARP request sent, count"
scalar SingleCell_Standalone.server.ipv4.arp arpRequestSent:sum(packetBytes) 0
attr recordingmode sum(packetBytes)
attr source arpRequestSent
attr title "ARP request sent, sum(packetBytes)"
par SingleCell_Standalone.server.ipv4.lp typename "\"inet.common.MessageDispatcher\""
par SingleCell_Standalone.server.ipv4.lp displayStringTextFormat "\"processed %p pk (%l)\""
par SingleCell_Standalone.server.ipv4.lp forwardServiceRegistration true
par SingleCell_Standalone.server.ipv4.lp forwardProtocolRegistration true
par SingleCell_Standalone.server.ipv4 typename "\"inet.networklayer.ipv4.Ipv4NetworkLayer\""
par SingleCell_Standalone.server.ipv4 forwarding false
par SingleCell_Standalone.server.ipv4 multicastForwarding false
par SingleCell_Standalone.server.ipv4 interfaceTableModule "\"SingleCell_Standalone.server.interfaceTable\""
par SingleCell_Standalone.server.ipv4 displayStringTextFormat "\"%i\""
par SingleCell_Standalone.server.nl typename "\"inet.common.MessageDispatcher\""
par SingleCell_Standalone.server.nl displayStringTextFormat "\"processed %p pk (%l)\""
par SingleCell_Standalone.server.nl forwardServiceRegistration true
par SingleCell_Standalone.server.nl forwardProtocolRegistration true
par SingleCell_Standalone.server.udp typename "\"inet.transportlayer.udp.Udp\""
par SingleCell_Standalone.server.udp interfaceTableModule "\"SingleCell_Standalone.server.interfaceTable\""
par SingleCell_Standalone.server.udp icmpModule "\"^.ipv4.icmp\""
par SingleCell_Standalone.server.udp icmpv6Module "\"^.ipv6.icmpv6\""
par SingleCell_Standalone.server.udp crcMode "\"declared\""
attr enum disabled,declared,computed
par SingleCell_Standalone.server.udp defaultMulticastLoop true
scalar SingleCell_Standalone.server.udp packetReceived:count 0
attr interpolationmode none
attr recordingmode count
attr source packetReceived
attr title "packets received, count"
scalar SingleCell_Standalone.server.udp packetReceived:sum(packetBytes) 0
attr interpolationmode none
attr recordingmode sum(packetBytes)
attr source packetReceived
attr title "packets received, sum(packetBytes)"
scalar SingleCell_Standalone.server.udp packetSent:count 14750
attr interpolationmode none
attr recordingmode count
attr source packetSent
attr title "packets sent, count"
scalar SingleCell_Standalone.server.udp packetSent:sum(packetBytes) 14868000
attr interpolationmode none
attr recordingmode sum(packetBytes)
attr source packetSent
attr title "packets sent, sum(packetBytes)"
scalar SingleCell_Standalone.server.udp passedUpPk:count 0
attr interpolationmode none
attr recordingmode count
attr source packetSentToUpper
attr title "packets passed up, count"
scalar SingleCell_Standalone.server.udp droppedPkWrongPort:count 0
attr interpolationmode none
attr recordingmode count
attr source packetDropReasonIsNoPortFound(packetDropped)
attr title "packets dropped (wrong port), count"
scalar SingleCell_Standalone.server.udp droppedPkBadChecksum:count 0
attr interpolationmode none
attr recordingmode count
attr source packetDropReasonIsIncorrectlyReceived(packetDropped)
attr title "packets dropped (checksum error), count"
par SingleCell_Standalone.server.tcp typename "\"inet.transportlayer.tcp.Tcp\""
par SingleCell_Standalone.server.tcp crcMode "\"declared\""
attr enum declared,computed
par SingleCell_Standalone.server.tcp advertisedWindow 7504
par SingleCell_Standalone.server.tcp delayedAcksEnabled false
par SingleCell_Standalone.server.tcp nagleEnabled true
par SingleCell_Standalone.server.tcp limitedTransmitEnabled false
par SingleCell_Standalone.server.tcp increasedIWEnabled false
par SingleCell_Standalone.server.tcp sackSupport false
par SingleCell_Standalone.server.tcp windowScalingSupport false
par SingleCell_Standalone.server.tcp windowScalingFactor -1
par SingleCell_Standalone.server.tcp timestampSupport false
par SingleCell_Standalone.server.tcp mss 536
par SingleCell_Standalone.server.tcp msl 120s
attr unit s
par SingleCell_Standalone.server.tcp tcpAlgorithmClass "\"TcpReno\""
attr enum TcpVegas,TcpWestwood,TcpNewReno,TcpReno,TcpTahoe,TcpNoCongestionControl
par SingleCell_Standalone.server.tcp useDataNotification false
par SingleCell_Standalone.server.tcp dupthresh 3
par SingleCell_Standalone.server.tcp initialSsthresh 4294967295
par SingleCell_Standalone.server.tcp stopOperationExtraTime 0s
attr unit s
par SingleCell_Standalone.server.tcp stopOperationTimeout 2s
attr unit s
par SingleCell_Standalone.server.tcp ecnWillingness false
par SingleCell_Standalone.server.tcp dctcpGamma 0.0625
par SingleCell_Standalone.server.tn typename "\"inet.common.MessageDispatcher\""
par SingleCell_Standalone.server.tn displayStringTextFormat "\"processed %p pk (%l)\""
par SingleCell_Standalone.server.tn forwardServiceRegistration true
par SingleCell_Standalone.server.tn forwardProtocolRegistration true
par SingleCell_Standalone.server.app[0] typename "\"inet.applications.udpapp.UdpVideoStreamServer\""
par SingleCell_Standalone.server.app[0] localPort 3088
par SingleCell_Standalone.server.app[0] sendInterval 0.02s
attr unit s
par SingleCell_Standalone.server.app[0] packetLen 1000B
attr unit B
par SingleCell_Standalone.server.app[0] videoSize 10485760B
attr unit B
par SingleCell_Standalone.server.app[0] timeToLive -1
par SingleCell_Standalone.server.app[0] dscp -1
par SingleCell_Standalone.server.app[0] tos -1
par SingleCell_Standalone.server.app[0] stopOperationExtraTime -1s
attr unit s
par SingleCell_Standalone.server.app[0] stopOperationTimeout 2s
attr unit s
scalar SingleCell_Standalone.server.app[0] packetSent:count 14750
attr interpolationmode none
attr recordingmode count
attr source packetSent
attr title "packets sent, count"
scalar SingleCell_Standalone.server.app[0] packetSent:sum(packetBytes) 14750000
attr interpolationmode none
attr recordingmode sum(packetBytes)
attr source packetSent
attr title "packets sent, sum(packetBytes)"
scalar SingleCell_Standalone.server.app[0] reqStreamBytes:count 0
attr interpolationmode none
attr recordingmode count
attr title "requested stream bytes, count"
scalar SingleCell_Standalone.server.app[0] reqStreamBytes:sum 0
attr interpolationmode none
attr recordingmode sum
attr title "requested stream bytes, sum"
par SingleCell_Standalone.server.at typename "\"inet.common.MessageDispatcher\""
par SingleCell_Standalone.server.at displayStringTextFormat "\"processed %p pk (%l)\""
par SingleCell_Standalone.server.at forwardServiceRegistration true
par SingleCell_Standalone.server.at forwardProtocolRegistration true
par SingleCell_Standalone.server typename "\"inet.node.inet.StandardHost\""
par SingleCell_Standalone.server hasStatus false
par SingleCell_Standalone.server osgModel "\"\""
par SingleCell_Standalone.server osgModelColor "\"\""
par SingleCell_Standalone.server canvasImage "\"\""
par SingleCell_Standalone.server canvasImageColor "\"\""
par SingleCell_Standalone.server recordPcap false
par SingleCell_Standalone.server numPcapRecorders 0
par SingleCell_Standalone.server numLoInterfaces 1
par SingleCell_Standalone.server numWlanInterfaces 0
par SingleCell_Standalone.server numEthInterfaces 0
par SingleCell_Standalone.server numPppInterfaces 0
par SingleCell_Standalone.server numTunInterfaces 0
par SingleCell_Standalone.server numVirtInterfaces 0
par SingleCell_Standalone.server fcsMode "\"declared\""
attr enum declared,computed
par SingleCell_Standalone.server hasIpv4 true
par SingleCell_Standalone.server hasIpv6 false
par SingleCell_Standalone.server hasGn false
par SingleCell_Standalone.server forwarding false
par SingleCell_Standalone.server multicastForwarding false
par SingleCell_Standalone.server hasUdp true
par SingleCell_Standalone.server hasTcp true
par SingleCell_Standalone.server hasSctp false
par SingleCell_Standalone.server numApps 1
par SingleCell_Standalone.router.pppg$i[0].channel typename "\"ned.IdealChannel\""
par SingleCell_Standalone.router.ppp[0].phys$o.channel typename "\"ned.IdealChannel\""
par SingleCell_Standalone.router.pppg$i[1].channel typename "\"ned.IdealChannel\""
par SingleCell_Standalone.router.ppp[1].phys$o.channel typename "\"ned.IdealChannel\""
par SingleCell_Standalone.router.interfaceTable typename "\"inet.networklayer.common.InterfaceTable\""
par SingleCell_Standalone.router.interfaceTable displayAddresses false
par SingleCell_Standalone.router.cb typename "\"inet.common.MessageDispatcher\""
par SingleCell_Standalone.router.cb displayStringTextFormat "\"processed %p pk (%l)\""
par SingleCell_Standalone.router.cb forwardServiceRegistration true
par SingleCell_Standalone.router.cb forwardProtocolRegistration true
par SingleCell_Standalone.router.bl typename "\"inet.common.MessageDispatcher\""
par SingleCell_Standalone.router.bl displayStringTextFormat "\"processed %p pk (%l)\""
par SingleCell_Standalone.router.bl forwardServiceRegistration true
par SingleCell_Standalone.router.bl forwardProtocolRegistration true
par SingleCell_Standalone.router.li typename "\"inet.common.MessageDispatcher\""
par SingleCell_Standalone.router.li displayStringTextFormat "\"processed %p pk (%l)\""
par SingleCell_Standalone.router.li forwardServiceRegistration true
par SingleCell_Standalone.router.li forwardProtocolRegistration true
par SingleCell_Standalone.router.lo[0].upperLayerIn.channel typename "\"ned.IdealChannel\""
par SingleCell_Standalone.router.lo[0].lo.upperLayerOut.channel typename "\"ned.IdealChannel\""
par SingleCell_Standalone.router.lo[0].lo typename "\"inet.linklayer.loopback.Loopback\""
par SingleCell_Standalone.router.lo[0].lo interfaceTableModule "\"SingleCell_Standalone.router.interfaceTable\""
par SingleCell_Standalone.router.lo[0].lo mtu 10000B
attr unit B
scalar SingleCell_Standalone.router.lo[0].lo rcvdPkFromHl:count 0
attr interpolationmode none
attr recordingmode count
attr source packetReceivedFromUpper
attr title "packets received from higher layer, count"
scalar SingleCell_Standalone.router.lo[0].lo rcvdPkFromHl:sum(packetBytes) 0
attr interpolationmode none
attr recordingmode sum(packetBytes)
attr source packetReceivedFromUpper
attr title "packets received from higher layer, sum(packetBytes)"
scalar SingleCell_Standalone.router.lo[0].lo passedUpPk:count 0
attr interpolationmode none
attr recordingmode count
attr source packetSentToUpper
attr title "packets passed to higher layer, count"
scalar SingleCell_Standalone.router.lo[0].lo passedUpPk:sum(packetBytes) 0
attr interpolationmode none
attr recordingmode sum(packetBytes)
attr source packetSentToUpper
attr title "packets passed to higher layer, sum(packetBytes)"
par SingleCell_Standalone.router.lo[0] typename "\"inet.linklayer.loopback.LoopbackInterface\""
par SingleCell_Standalone.router.lo[0] displayStringTextFormat "\"%a (%i)\\n%m\""
par SingleCell_Standalone.router.lo[0] recordPcap false
par SingleCell_Standalone.router.lo[0] numPcapRecorders 0
par SingleCell_Standalone.router.lo[0] interfaceTableModule "\"SingleCell_Standalone.router.interfaceTable\""
scalar SingleCell_Standalone.router.lo[0] packetDropInterfaceDown:count 0
attr interpolationmode none
attr recordingmode count
attr source packetDropReasonIsInterfaceDown(packetDropped)
attr title "packet drops: interface down, count"
scalar SingleCell_Standalone.router.lo[0] packetDropInterfaceDown:sum(packetBytes) 0
attr interpolationmode none
attr recordingmode sum(packetBytes)
attr source packetDropReasonIsInterfaceDown(packetDropped)
attr title "packet drops: interface down, sum(packetBytes)"
scalar SingleCell_Standalone.router.lo[0] packetDropNoCarrier:count 0
attr interpolationmode none
attr recordingmode count
attr source packetDropReasonIsNoCarrier(packetDropped)
attr title "packet drops: no carrier, count"
scalar SingleCell_Standalone.router.lo[0] packetDropNoCarrier:sum(packetBytes) 0
attr interpolationmode none
attr recordingmode sum(packetBytes)
attr source packetDropReasonIsNoCarrier(packetDropped)
attr title "packet drops: no carrier, sum(packetBytes)"
par SingleCell_Standalone.router.ppp[0].phys$i.channel typename "\"ned.IdealChannel\""
par SingleCell_Standalone.router.ppp[0].ppp.phys$o.channel typename "\"ned.IdealChannel\""
par SingleCell_Standalone.router.ppp[0].ppp.upperLayerOut.channel typename "\"ned.IdealChannel\""
par SingleCell_Standalone.router.ppp[0].upperLayerIn.channel typename "\"ned.IdealChannel\""
par SingleCell_Standalone.router.ppp[0].queue typename "\"inet.queueing.queue.DropTailQueue\""
par SingleCell_Standalone.router.ppp[0].queue displayStringTextFormat "\"contains %p pk (%l) pushed %u\\npulled %o removed %r dropped %d\""
par SingleCell_Standalone.router.ppp[0].queue packetCapacity 10000
par SingleCell_Standalone.router.ppp[0].queue dataCapacity -1b
attr unit b
par SingleCell_Standalone.router.ppp[0].queue dropperClass "\"inet::queueing::PacketAtCollectionEndDropper\""
par SingleCell_Standalone.router.ppp[0].queue comparatorClass "\"\""
par SingleCell_Standalone.router.ppp[0].queue bufferModule "\"\""
scalar SingleCell_Standalone.router.ppp[0].queue queueLength:last nan
attr autoWarmupFilter false
attr interpolationmode sample-hold
attr recordingmode last
attr source "warmup(atomic(constant0(packetPushEnded) + count(packetPushStarted) - count(packetPulled) - count(packetRemoved) - count(packetDropped)))"
attr title "queue length, last"
attr unit pk
scalar SingleCell_Standalone.router.ppp[0].queue queueLength:max nan
attr autoWarmupFilter false
attr interpolationmode sample-hold
attr recordingmode max
attr source "warmup(atomic(constant0(packetPushEnded) + count(packetPushStarted) - count(packetPulled) - count(packetRemoved) - count(packetDropped)))"
attr title "queue length, max"
attr unit pk
scalar SingleCell_Standalone.router.ppp[0].queue queueLength:timeavg -nan
attr autoWarmupFilter false
attr interpolationmode sample-hold
attr recordingmode timeavg
attr source "warmup(atomic(constant0(packetPushEnded) + count(packetPushStarted) - count(packetPulled) - count(packetRemoved) - count(packetDropped)))"
attr title "queue length, timeavg"
attr unit pk
scalar SingleCell_Standalone.router.ppp[0].queue queueBitLength:last nan
attr autoWarmupFilter false
attr interpolationmode sample-hold
attr recordingmode last
attr source "warmup(atomic(constant0(packetPushEnded) + sum(packetLength(packetPushStarted)) - sum(packetLength(packetPulled)) - sum(packetLength(packetRemoved)) - sum(packetLength(packetDropped))))"
attr title "queue bit length, last"
attr unit b
scalar SingleCell_Standalone.router.ppp[0].queue queueBitLength:max nan
attr autoWarmupFilter false
attr interpolationmode sample-hold
attr recordingmode max
attr source "warmup(atomic(constant0(packetPushEnded) + sum(packetLength(packetPushStarted)) - sum(packetLength(packetPulled)) - sum(packetLength(packetRemoved)) - sum(packetLength(packetDropped))))"
attr title "queue bit length, max"
attr unit b
scalar SingleCell_Standalone.router.ppp[0].queue queueBitLength:timeavg -nan
attr autoWarmupFilter false
attr interpolationmode sample-hold
attr recordingmode timeavg
attr source "warmup(atomic(constant0(packetPushEnded) + sum(packetLength(packetPushStarted)) - sum(packetLength(packetPulled)) - sum(packetLength(packetRemoved)) - sum(packetLength(packetDropped))))"
attr title "queue bit length, timeavg"
attr unit b
statistic SingleCell_Standalone.router.ppp[0].queue queueingTime:histogram
field count 0
field mean -nan
field stddev nan
field min nan
field max nan
field sum 0
field sqrsum 0
attr interpolationmode none
attr recordingmode histogram
attr source queueingTime(packetPulled)
attr title "queueing times"
attr unit s
bin	-inf	0
bin	0	0
bin	1	0
scalar SingleCell_Standalone.router.ppp[0].queue outgoingPackets:count 0
attr recordingmode count
attr source packetPulled
attr title "outgoing packets, count"
attr unit pk
scalar SingleCell_Standalone.router.ppp[0].queue outgoingPacketLengths:sum 0
attr interpolationmode none
attr recordingmode sum
attr source packetLength(packetPulled)
attr title "outgoing packet lengths, sum"
attr unit b
statistic SingleCell_Standalone.router.ppp[0].queue outgoingPacketLengths:histogram
field count 0
field mean -nan
field stddev nan
field min nan
field max nan
field sum 0
field sqrsum 0
attr interpolationmode none
attr recordingmode histogram
attr source packetLength(packetPulled)
attr title "outgoing packet lengths"
attr unit b
bin	-inf	0
bin	0	0
bin	1	0
statistic SingleCell_Standalone.router.ppp[0].queue flowQueueingTime:histogram
field count 0
field mean -nan
field stddev nan
field min nan
field max nan
field sum 0
field sqrsum 0
attr interpolationmode none
attr recordingmode histogram
attr source queueingTime(demuxFlow(packetPulled))
attr title "flow queueing times"
attr unit s
bin	-inf	0
bin	0	0
bin	1	0
scalar SingleCell_Standalone.router.ppp[0].queue incomingPackets:count 0
attr recordingmode count
attr source packetPushStarted
attr title "incoming packets, count"
attr unit pk
scalar SingleCell_Standalone.router.ppp[0].queue incomingPacketLengths:sum 0
attr interpolationmode none
attr recordingmode sum
attr source packetLength(packetPushStarted)
attr title "incoming packet lengths, sum"
attr unit b
statistic SingleCell_Standalone.router.ppp[0].queue incomingPacketLengths:histogram
field count 0
field mean -nan
field stddev nan
field min nan
field max nan
field sum 0
field sqrsum 0
attr interpolationmode none
attr recordingmode histogram
attr source packetLength(packetPushStarted)
attr title "incoming packet lengths"
attr unit b
bin	-inf	0
bin	0	0
bin	1	0
scalar SingleCell_Standalone.router.ppp[0].queue droppedPacketsQueueOverflow:count 0
attr interpolationmode none
attr recordingmode count
attr source packetDropReasonIsQueueOverflow(packetDropped)
attr title "dropped packets: queue overflow, count"
attr unit pk
scalar SingleCell_Standalone.router.ppp[0].queue droppedPacketLengthsQueueOverflow:sum 0
attr interpolationmode none
attr recordingmode sum
attr source packetLength(packetDropReasonIsQueueOverflow(packetDropped))
attr title "dropped packet lengths: queue overflow, sum"
attr unit b
par SingleCell_Standalone.router.ppp[0].ppp typename "\"inet.linklayer.ppp.Ppp\""
par SingleCell_Standalone.router.ppp[0].ppp interfaceTableModule "\"SingleCell_Standalone.router.interfaceTable\""
par SingleCell_Standalone.router.ppp[0].ppp displayStringTextFormat "\"rate: %b\\nsent: %s, rcvd: %r\\nqueue: %q, drop: %d\""
par SingleCell_Standalone.router.ppp[0].ppp sendRawBytes false
par SingleCell_Standalone.router.ppp[0].ppp mtu 10000B
attr unit B
par SingleCell_Standalone.router.ppp[0].ppp stopOperationExtraTime -1s
attr unit s
par SingleCell_Standalone.router.ppp[0].ppp stopOperationTimeout 2s
attr unit s
scalar SingleCell_Standalone.router.ppp[0].ppp transmissionState:timeavg -nan
attr interpolationmode sample-hold
attr recordingmode timeavg
attr source transmissionStateChanged
attr title "tx state, timeavg"
scalar SingleCell_Standalone.router.ppp[0].ppp rxPkOk:count 14750
attr interpolationmode none
attr recordingmode count
attr source rxPkOk
attr title "packets received OK, count"
scalar SingleCell_Standalone.router.ppp[0].ppp rxPkOk:sum(packetBytes) 15266250
attr interpolationmode none
attr recordingmode sum(packetBytes)
attr source rxPkOk
attr title "packets received OK, sum(packetBytes)"
scalar SingleCell_Standalone.router.ppp[0].ppp txPk:count 0
attr interpolationmode none
attr recordingmode count
attr source packetSentToLower
attr title "packets transmitted, count"
scalar SingleCell_Standalone.router.ppp[0].ppp txPk:sum(packetBytes) 0
attr interpolationmode none
attr recordingmode sum(packetBytes)
attr source packetSentToLower
attr title "packets transmitted, sum(packetBytes)"
scalar SingleCell_Standalone.router.ppp[0].ppp rcvdPkFromHl:count 0
attr interpolationmode none
attr recordingmode count
attr source packetReceivedFromUpper
attr title "packets received from higher layer, count"
scalar SingleCell_Standalone.router.ppp[0].ppp rcvdPkFromHl:sum(packetBytes) 0
attr interpolationmode none
attr recordingmode sum(packetBytes)
attr source packetReceivedFromUpper
attr title "packets received from higher layer, sum(packetBytes)"
scalar SingleCell_Standalone.router.ppp[0].ppp passedUpPk:count 14750
attr interpolationmode none
attr recordingmode count
attr source packetSentToUpper
attr title "packets passed to higher layer, count"
scalar SingleCell_Standalone.router.ppp[0].ppp passedUpPk:sum(packetBytes) 15163000
attr interpolationmode none
attr recordingmode sum(packetBytes)
attr source packetSentToUpper
attr title "packets passed to higher layer, sum(packetBytes)"
scalar SingleCell_Standalone.router.ppp[0].ppp packetDropIncorrectlyReceived:count 0
attr interpolationmode none
attr recordingmode count
attr source packetDropReasonIsIncorrectlyReceived(packetDropped)
attr title "packet drop: incorrectly received, count"
scalar SingleCell_Standalone.router.ppp[0].ppp packetDropIncorrectlyReceived:sum(packetBytes) 0
attr interpolationmode none
attr recordingmode sum(packetBytes)
attr source packetDropReasonIsIncorrectlyReceived(packetDropped)
attr title "packet drop: incorrectly received, sum(packetBytes)"
scalar SingleCell_Standalone.router.ppp[0].ppp packetDropInterfaceDown:count 0
attr interpolationmode none
attr recordingmode count
attr source packetDropReasonIsInterfaceDown(packetDropped)
attr title "packet drop: interface down, count"
scalar SingleCell_Standalone.router.ppp[0].ppp packetDropInterfaceDown:sum(packetBytes) 0
attr interpolationmode none
attr recordingmode sum(packetBytes)
attr source packetDropReasonIsInterfaceDown(packetDropped)
attr title "packet drop: interface down, sum(packetBytes)"
par SingleCell_Standalone.router.ppp[0] typename "\"inet.linklayer.ppp.PppInterface\""
par SingleCell_Standalone.router.ppp[0] displayStringTextFormat "\"%a (%i)\\n%m\""
par SingleCell_Standalone.router.ppp[0] recordPcap false
par SingleCell_Standalone.router.ppp[0] numPcapRecorders 0
par SingleCell_Standalone.router.ppp[0] interfaceTableModule "\"SingleCell_Standalone.router.interfaceTable\""
scalar SingleCell_Standalone.router.ppp[0] packetDropInterfaceDown:count 0
attr interpolationmode none
attr recordingmode count
attr source packetDropReasonIsInterfaceDown(packetDropped)
attr title "packet drops: interface down, count"
scalar SingleCell_Standalone.router.ppp[0] packetDropInterfaceDown:sum(packetBytes) 0
attr interpolationmode none
attr recordingmode sum(packetBytes)
attr source packetDropReasonIsInterfaceDown(packetDropped)
attr title "packet drops: interface down, sum(packetBytes)"
scalar SingleCell_Standalone.router.ppp[0] packetDropNoCarrier:count 0
attr interpolationmode none
attr recordingmode count
attr source packetDropReasonIsNoCarrier(packetDropped)
attr title "packet drops: no carrier, count"
scalar SingleCell_Standalone.router.ppp[0] packetDropNoCarrier:sum(packetBytes) 0
attr interpolationmode none
attr recordingmode sum(packetBytes)
attr source packetDropReasonIsNoCarrier(packetDropped)
attr title "packet drops: no carrier, sum(packetBytes)"
par SingleCell_Standalone.router.ppp[1].phys$i.channel typename "\"ned.IdealChannel\""
par SingleCell_Standalone.router.ppp[1].ppp.phys$o.channel typename "\"ned.IdealChannel\""
par SingleCell_Standalone.router.ppp[1].ppp.upperLayerOut.channel typename "\"ned.IdealChannel\""
par SingleCell_Standalone.router.ppp[1].upperLayerIn.channel typename "\"ned.IdealChannel\""
par SingleCell_Standalone.router.ppp[1].queue typename "\"inet.queueing.queue.DropTailQueue\""
par SingleCell_Standalone.router.ppp[1].queue displayStringTextFormat "\"contains %p pk (%l) pushed %u\\npulled %o removed %r dropped %d\""
par SingleCell_Standalone.router.ppp[1].queue packetCapacity 10000
par SingleCell_Standalone.router.ppp[1].queue dataCapacity -1b
attr unit b
par SingleCell_Standalone.router.ppp[1].queue dropperClass "\"inet::queueing::PacketAtCollectionEndDropper\""
par SingleCell_Standalone.router.ppp[1].queue comparatorClass "\"\""
par SingleCell_Standalone.router.ppp[1].queue bufferModule "\"\""
scalar SingleCell_Standalone.router.ppp[1].queue queueLength:last 0
attr autoWarmupFilter false
attr interpolationmode sample-hold
attr recordingmode last
attr source "warmup(atomic(constant0(packetPushEnded) + count(packetPushStarted) - count(packetPulled) - count(packetRemoved) - count(packetDropped)))"
attr title "queue length, last"
attr unit pk
scalar SingleCell_Standalone.router.ppp[1].queue queueLength:max 0
attr autoWarmupFilter false
attr interpolationmode sample-hold
attr recordingmode max
attr source "warmup(atomic(constant0(packetPushEnded) + count(packetPushStarted) - count(packetPulled) - count(packetRemoved) - count(packetDropped)))"
attr title "queue length, max"
attr unit pk
scalar SingleCell_Standalone.router.ppp[1].queue queueLength:timeavg 0
attr autoWarmupFilter false
attr interpolationmode sample-hold
attr recordingmode timeavg
attr source "warmup(atomic(constant0(packetPushEnded) + count(packetPushStarted) - count(packetPulled) - count(packetRemoved) - count(packetDropped)))"
attr title "queue length, timeavg"
attr unit pk
scalar SingleCell_Standalone.router.ppp[1].queue queueBitLength:last 0
attr autoWarmupFilter false
attr interpolationmode sample-hold
attr recordingmode last
attr source "warmup(atomic(constant0(packetPushEnded) + sum(packetLength(packetPushStarted)) - sum(packetLength(packetPulled)) - sum(packetLength(packetRemoved)) - sum(packetLength(packetDropped))))"
attr title "queue bit length, last"
attr unit b
scalar SingleCell_Standalone.router.ppp[1].queue queueBitLength:max 0
attr autoWarmupFilter false
attr interpolationmode sample-hold
attr recordingmode max
attr source "warmup(atomic(constant0(packetPushEnded) + sum(packetLength(packetPushStarted)) - sum(packetLength(packetPulled)) - sum(packetLength(packetRemoved)) - sum(packetLength(packetDropped))))"
attr title "queue bit length, max"
attr unit b
scalar SingleCell_Standalone.router.ppp[1].queue queueBitLength:timeavg 0
attr autoWarmupFilter false
attr interpolationmode sample-hold
attr recordingmode timeavg
attr source "warmup(atomic(constant0(packetPushEnded) + sum(packetLength(packetPushStarted)) - sum(packetLength(packetPulled)) - sum(packetLength(packetRemoved)) - sum(packetLength(packetDropped))))"
attr title "queue bit length, timeavg"
attr unit b
statistic SingleCell_Standalone.router.ppp[1].queue queueingTime:histogram
field count 14750
field mean 0
field stddev 0
field min 0
field max 0
field sum 0
field sqrsum 0
attr interpolationmode none
attr recordingmode histogram
attr source queueingTime(packetPulled)
attr title "queueing times"
attr unit s
bin	-inf	0
bin	-0.5	0
bin	-0.48	0
bin	-0.46	0
bin	-0.44	0
bin	-0.42	0
bin	-0.4	0
bin	-0.38	0
bin	-0.36	0
bin	-0.34	0
bin	-0.32	0
bin	-0.3	0
bin	-0.28	0
bin	-0.26	0
bin	-0.24	0
bin	-0.22	0
bin	-0.2	0
bin	-0.18	0
bin	-0.16	0
bin	-0.14	0
bin	-0.12	0
bin	-0.1	0
bin	-0.08	0
bin	-0.06	0
bin	-0.04	0
bin	-0.02	0
bin	0	14750
bin	0.02	0
bin	0.04	0
bin	0.06	0
bin	0.08	0
bin	0.1	0
bin	0.12	0
bin	0.14	0
bin	0.16	0
bin	0.18	0
bin	0.2	0
bin	0.22	0
bin	0.24	0
bin	0.26	0
bin	0.28	0
bin	0.3	0
bin	0.32	0
bin	0.34	0
bin	0.36	0
bin	0.38	0
bin	0.4	0
bin	0.42	0
bin	0.44	0
bin	0.46	0
bin	0.48	0
bin	0.5	0
scalar SingleCell_Standalone.router.ppp[1].queue outgoingPackets:count 14750
attr recordingmode count
attr source packetPulled
attr title "outgoing packets, count"
attr unit pk
scalar SingleCell_Standalone.router.ppp[1].queue outgoingPacketLengths:sum 121304000
attr interpolationmode none
attr recordingmode sum
attr source packetLength(packetPulled)
attr title "outgoing packet lengths, sum"
attr unit b
statistic SingleCell_Standalone.router.ppp[1].queue outgoingPacketLengths:histogram
field count 14750
field mean 8224
field stddev 0
field min 8224
field max 8224
field sum 121304000
field sqrsum 997604096000
attr interpolationmode none
attr recordingmode histogram
attr source packetLength(packetPulled)
attr title "outgoing packet lengths"
attr unit b
bin	-inf	0
bin	8223	0
bin	8224	14750
bin	8225	0
statistic SingleCell_Standalone.router.ppp[1].queue flowQueueingTime:histogram
field count 0
field mean -nan
field stddev nan
field min nan
field max nan
field sum 0
field sqrsum 0
attr interpolationmode none
attr recordingmode histogram
attr source queueingTime(demuxFlow(packetPulled))
attr title "flow queueing times"
attr unit s
bin	-inf	0
bin	0	0
bin	1	0
scalar SingleCell_Standalone.router.ppp[1].queue incomingPackets:count 14750
attr recordingmode count
attr source packetPushStarted
attr title "incoming packets, count"
attr unit pk
scalar SingleCell_Standalone.router.ppp[1].queue incomingPacketLengths:sum 121304000
attr interpolationmode none
attr recordingmode sum
attr source packetLength(packetPushStarted)
attr title "incoming packet lengths, sum"
attr unit b
statistic SingleCell_Standalone.router.ppp[1].queue incomingPacketLengths:histogram
field count 14750
field mean 8224
field stddev 0
field min 8224
field max 8224
field sum 121304000
field sqrsum 997604096000
attr interpolationmode none
attr recordingmode histogram
attr source packetLength(packetPushStarted)
attr title "incoming packet lengths"
attr unit b
bin	-inf	0
bin	8223	0
bin	8224	14750
bin	8225	0
scalar SingleCell_Standalone.router.ppp[1].queue droppedPacketsQueueOverflow:count 0
attr interpolationmode none
attr recordingmode count
attr source packetDropReasonIsQueueOverflow(packetDropped)
attr title "dropped packets: queue overflow, count"
attr unit pk
scalar SingleCell_Standalone.router.ppp[1].queue droppedPacketLengthsQueueOverflow:sum 0
attr interpolationmode none
attr recordingmode sum
attr source packetLength(packetDropReasonIsQueueOverflow(packetDropped))
attr title "dropped packet lengths: queue overflow, sum"
attr unit b
par SingleCell_Standalone.router.ppp[1].ppp typename "\"inet.linklayer.ppp.Ppp\""
par SingleCell_Standalone.router.ppp[1].ppp interfaceTableModule "\"SingleCell_Standalone.router.interfaceTable\""
par SingleCell_Standalone.router.ppp[1].ppp displayStringTextFormat "\"rate: %b\\nsent: %s, rcvd: %r\\nqueue: %q, drop: %d\""
par SingleCell_Standalone.router.ppp[1].ppp sendRawBytes false
par SingleCell_Standalone.router.ppp[1].ppp mtu 10000B
attr unit B
par SingleCell_Standalone.router.ppp[1].ppp stopOperationExtraTime -1s
attr unit s
par SingleCell_Standalone.router.ppp[1].ppp stopOperationTimeout 2s
attr unit s
scalar SingleCell_Standalone.router.ppp[1].ppp transmissionState:timeavg 0.00020702456662557
attr interpolationmode sample-hold
attr recordingmode timeavg
attr source transmissionStateChanged
attr title "tx state, timeavg"
scalar SingleCell_Standalone.router.ppp[1].ppp rxPkOk:count 0
attr interpolationmode none
attr recordingmode count
attr source rxPkOk
attr title "packets received OK, count"
scalar SingleCell_Standalone.router.ppp[1].ppp rxPkOk:sum(packetBytes) 0
attr interpolationmode none
attr recordingmode sum(packetBytes)
attr source rxPkOk
attr title "packets received OK, sum(packetBytes)"
scalar SingleCell_Standalone.router.ppp[1].ppp txPk:count 14750
attr interpolationmode none
attr recordingmode count
attr source packetSentToLower
attr title "packets transmitted, count"
scalar SingleCell_Standalone.router.ppp[1].ppp txPk:sum(packetBytes) 15266250
attr interpolationmode none
attr recordingmode sum(packetBytes)
attr source packetSentToLower
attr title "packets transmitted, sum(packetBytes)"
scalar SingleCell_Standalone.router.ppp[1].ppp rcvdPkFromHl:count 0
attr interpolationmode none
attr recordingmode count
attr source packetReceivedFromUpper
attr title "packets received from higher layer, count"
scalar SingleCell_Standalone.router.ppp[1].ppp rcvdPkFromHl:sum(packetBytes) 0
attr interpolationmode none
attr recordingmode sum(packetBytes)
attr source packetReceivedFromUpper
attr title "packets received from higher layer, sum(packetBytes)"
scalar SingleCell_Standalone.router.ppp[1].ppp passedUpPk:count 0
attr interpolationmode none
attr recordingmode count
attr source packetSentToUpper
attr title "packets passed to higher layer, count"
scalar SingleCell_Standalone.router.ppp[1].ppp passedUpPk:sum(packetBytes) 0
attr interpolationmode none
attr recordingmode sum(packetBytes)
attr source packetSentToUpper
attr title "packets passed to higher layer, sum(packetBytes)"
scalar SingleCell_Standalone.router.ppp[1].ppp packetDropIncorrectlyReceived:count 0
attr interpolationmode none
attr recordingmode count
attr source packetDropReasonIsIncorrectlyReceived(packetDropped)
attr title "packet drop: incorrectly received, count"
scalar SingleCell_Standalone.router.ppp[1].ppp packetDropIncorrectlyReceived:sum(packetBytes) 0
attr interpolationmode none
attr recordingmode sum(packetBytes)
attr source packetDropReasonIsIncorrectlyReceived(packetDropped)
attr title "packet drop: incorrectly received, sum(packetBytes)"
scalar SingleCell_Standalone.router.ppp[1].ppp packetDropInterfaceDown:count 0
attr interpolationmode none
attr recordingmode count
attr source packetDropReasonIsInterfaceDown(packetDropped)
attr title "packet drop: interface down, count"
scalar SingleCell_Standalone.router.ppp[1].ppp packetDropInterfaceDown:sum(packetBytes) 0
attr interpolationmode none
attr recordingmode sum(packetBytes)
attr source packetDropReasonIsInterfaceDown(packetDropped)
attr title "packet drop: interface down, sum(packetBytes)"
par SingleCell_Standalone.router.ppp[1] typename "\"inet.linklayer.ppp.PppInterface\""
par SingleCell_Standalone.router.ppp[1] displayStringTextFormat "\"%a (%i)\\n%m\""
par SingleCell_Standalone.router.ppp[1] recordPcap false
par SingleCell_Standalone.router.ppp[1] numPcapRecorders 0
par SingleCell_Standalone.router.ppp[1] interfaceTableModule "\"SingleCell_Standalone.router.interfaceTable\""
scalar SingleCell_Standalone.router.ppp[1] packetDropInterfaceDown:count 0
attr interpolationmode none
attr recordingmode count
attr source packetDropReasonIsInterfaceDown(packetDropped)
attr title "packet drops: interface down, count"
scalar SingleCell_Standalone.router.ppp[1] packetDropInterfaceDown:sum(packetBytes) 0
attr interpolationmode none
attr recordingmode sum(packetBytes)
attr source packetDropReasonIsInterfaceDown(packetDropped)
attr title "packet drops: interface down, sum(packetBytes)"
scalar SingleCell_Standalone.router.ppp[1] packetDropNoCarrier:count 0
attr interpolationmode none
attr recordingmode count
attr source packetDropReasonIsNoCarrier(packetDropped)
attr title "packet drops: no carrier, count"
scalar SingleCell_Standalone.router.ppp[1] packetDropNoCarrier:sum(packetBytes) 0
attr interpolationmode none
attr recordingmode sum(packetBytes)
attr source packetDropReasonIsNoCarrier(packetDropped)
attr title "packet drops: no carrier, sum(packetBytes)"
par SingleCell_Standalone.router.ipv4.transportIn.channel typename "\"ned.IdealChannel\""
par SingleCell_Standalone.router.ipv4.up.out[0].channel typename "\"ned.IdealChannel\""
par SingleCell_Standalone.router.ipv4.lp.out[2].channel typename "\"ned.IdealChannel\""
par SingleCell_Standalone.router.ipv4.ifIn.channel typename "\"ned.IdealChannel\""
par SingleCell_Standalone.router.ipv4.configurator typename "\"inet.networklayer.configurator.ipv4.Ipv4NodeConfigurator\""
par SingleCell_Standalone.router.ipv4.configurator interfaceTableModule "\"SingleCell_Standalone.router.interfaceTable\""
par SingleCell_Standalone.router.ipv4.configurator routingTableModule "\"SingleCell_Standalone.router.ipv4.routingTable\""
par SingleCell_Standalone.router.ipv4.configurator networkConfiguratorModule "\"configurator\""
par SingleCell_Standalone.router.ipv4.configurator configureRoutingTable true
par SingleCell_Standalone.router.ipv4.routingTable typename "\"inet.networklayer.ipv4.Ipv4RoutingTable\""
par SingleCell_Standalone.router.ipv4.routingTable interfaceTableModule "\"SingleCell_Standalone.router.interfaceTable\""
par SingleCell_Standalone.router.ipv4.routingTable routerId "\"auto\""
par SingleCell_Standalone.router.ipv4.routingTable netmaskRoutes "\"*\""
par SingleCell_Standalone.router.ipv4.routingTable forwarding true
par SingleCell_Standalone.router.ipv4.routingTable multicastForwarding false
par SingleCell_Standalone.router.ipv4.routingTable useAdminDist false
par SingleCell_Standalone.router.ipv4.routingTable routingFile "\"\""
par SingleCell_Standalone.router.ipv4.natTable typename "\"inet.networklayer.ipv4.Ipv4NatTable\""
par SingleCell_Standalone.router.ipv4.natTable networkProtocolModule "\"^.ip\""
par SingleCell_Standalone.router.ipv4.natTable config "<config/> at content:1"
par SingleCell_Standalone.router.ipv4.up typename "\"inet.common.MessageDispatcher\""
par SingleCell_Standalone.router.ipv4.up displayStringTextFormat "\"processed %p pk (%l)\""
par SingleCell_Standalone.router.ipv4.up forwardServiceRegistration true
par SingleCell_Standalone.router.ipv4.up forwardProtocolRegistration true
par SingleCell_Standalone.router.ipv4.igmp typename "\"inet.networklayer.ipv4.Igmpv2\""
par SingleCell_Standalone.router.ipv4.igmp interfaceTableModule "\"SingleCell_Standalone.router.interfaceTable\""
par SingleCell_Standalone.router.ipv4.igmp routingTableModule "\"SingleCell_Standalone.router.ipv4.routingTable\""
par SingleCell_Standalone.router.ipv4.igmp crcMode "\"declared\""
attr enum declared,computed
par SingleCell_Standalone.router.ipv4.igmp enabled true
par SingleCell_Standalone.router.ipv4.igmp robustnessVariable 2
par SingleCell_Standalone.router.ipv4.igmp queryInterval 125s
attr unit s
par SingleCell_Standalone.router.ipv4.igmp queryResponseInterval 10s
attr unit s
par SingleCell_Standalone.router.ipv4.igmp groupMembershipInterval 260s
attr unit s
par SingleCell_Standalone.router.ipv4.igmp otherQuerierPresentInterval 255s
attr unit s
par SingleCell_Standalone.router.ipv4.igmp startupQueryInterval 31.25s
attr unit s
par SingleCell_Standalone.router.ipv4.igmp startupQueryCount 2
par SingleCell_Standalone.router.ipv4.igmp lastMemberQueryInterval 1s
attr unit s
par SingleCell_Standalone.router.ipv4.igmp lastMemberQueryCount 2
par SingleCell_Standalone.router.ipv4.igmp unsolicitedReportInterval 10s
attr unit s
par SingleCell_Standalone.router.ipv4.icmp typename "\"inet.networklayer.ipv4.Icmp\""
par SingleCell_Standalone.router.ipv4.icmp interfaceTableModule "\"SingleCell_Standalone.router.interfaceTable\""
par SingleCell_Standalone.router.ipv4.icmp routingTableModule "\"SingleCell_Standalone.router.ipv4.routingTable\""
par SingleCell_Standalone.router.ipv4.icmp crcMode "\"declared\""
attr enum declared,computed
attr mutable ""
par SingleCell_Standalone.router.ipv4.icmp quoteLength 8B
attr mutable ""
attr unit B
par SingleCell_Standalone.router.ipv4.mp typename "\"inet.common.MessageDispatcher\""
par SingleCell_Standalone.router.ipv4.mp displayStringTextFormat "\"processed %p pk (%l)\""
par SingleCell_Standalone.router.ipv4.mp forwardServiceRegistration true
par SingleCell_Standalone.router.ipv4.mp forwardProtocolRegistration true
par SingleCell_Standalone.router.ipv4.ip typename "\"inet.networklayer.ipv4.Ipv4\""
par SingleCell_Standalone.router.ipv4.ip interfaceTableModule "\"SingleCell_Standalone.router.interfaceTable\""
par SingleCell_Standalone.router.ipv4.ip routingTableModule "\"SingleCell_Standalone.router.ipv4.routingTable\""
par SingleCell_Standalone.router.ipv4.ip arpModule "\"SingleCell_Standalone.router.ipv4.arp\""
par SingleCell_Standalone.router.ipv4.ip icmpModule "\"SingleCell_Standalone.router.ipv4.icmp\""
par SingleCell_Standalone.router.ipv4.ip crcMode "\"declared\""
attr enum declared,computed
par SingleCell_Standalone.router.ipv4.ip timeToLive 32
par SingleCell_Standalone.router.ipv4.ip multicastTimeToLive 32
par SingleCell_Standalone.router.ipv4.ip fragmentTimeout 60s
attr unit s
par SingleCell_Standalone.router.ipv4.ip limitedBroadcast false
par SingleCell_Standalone.router.ipv4.ip directBroadcastInterfaces "\"\""
scalar SingleCell_Standalone.router.ipv4.ip packetDropAddressResolutionFailed:count 0
attr interpolationmode none
attr recordingmode count
attr source packetDropReasonIsAddressResolutionFailed(packetDropped)
attr title "packet drop: address resolution failed, count"
scalar SingleCell_Standalone.router.ipv4.ip packetDropAddressResolutionFailed:sum(packetBytes) 0
attr interpolationmode none
attr recordingmode sum(packetBytes)
attr source packetDropReasonIsAddressResolutionFailed(packetDropped)
attr title "packet drop: address resolution failed, sum(packetBytes)"
scalar SingleCell_Standalone.router.ipv4.ip packetDropHopLimitReached:count 0
attr interpolationmode none
attr recordingmode count
attr source packetDropReasonIsHopLimitReached(packetDropped)
attr title "packet drop: hop limit reached, count"
scalar SingleCell_Standalone.router.ipv4.ip packetDropHopLimitReached:sum(packetBytes) 0
attr interpolationmode none
attr recordingmode sum(packetBytes)
attr source packetDropReasonIsHopLimitReached(packetDropped)
attr title "packet drop: hop limit reached, sum(packetBytes)"
scalar SingleCell_Standalone.router.ipv4.ip packetDropForwardingDisabled:count 0
attr interpolationmode none
attr recordingmode count
attr source packetDropReasonIsForwardingDisabled(packetDropped)
attr title "packet drop: forwarding disabled, count"
scalar SingleCell_Standalone.router.ipv4.ip packetDropForwardingDisabled:sum(packetBytes) 0
attr interpolationmode none
attr recordingmode sum(packetBytes)
attr source packetDropReasonIsForwardingDisabled(packetDropped)
attr title "packet drop: forwarding disabled, sum(packetBytes)"
scalar SingleCell_Standalone.router.ipv4.ip packetDropNoInterfaceFound:count 0
attr interpolationmode none
attr recordingmode count
attr source packetDropReasonIsNoInterfaceFound(packetDropped)
attr title "packet drop: no interface found, count"
scalar SingleCell_Standalone.router.ipv4.ip packetDropNoInterfaceFound:sum(packetBytes) 0
attr interpolationmode none
attr recordingmode sum(packetBytes)
attr source packetDropReasonIsNoInterfaceFound(packetDropped)
attr title "packet drop: no interface found, sum(packetBytes)"
scalar SingleCell_Standalone.router.ipv4.ip packetDropNoRouteFound:count 0
attr interpolationmode none
attr recordingmode count
attr source packetDropReasonIsNoRouteFound(packetDropped)
attr title "packet drop: no route found, count"
scalar SingleCell_Standalone.router.ipv4.ip packetDropNoRouteFound:sum(packetBytes) 0
attr interpolationmode none
attr recordingmode sum(packetBytes)
attr source packetDropReasonIsNoRouteFound(packetDropped)
attr title "packet drop: no route found, sum(packetBytes)"
scalar SingleCell_Standalone.router.ipv4.ip packetDropUndefined:count 0
attr interpolationmode none
attr recordingmode count
attr source packetDropReasonIsUndefined(packetDropped)
attr title "packet drop: undefined, count"
scalar SingleCell_Standalone.router.ipv4.ip packetDropUndefined:sum(packetBytes) 0
attr interpolationmode none
attr recordingmode sum(packetBytes)
attr source packetDropReasonIsUndefined(packetDropped)
attr title "packet drop: undefined, sum(packetBytes)"
par SingleCell_Standalone.router.ipv4.arp typename "\"inet.networklayer.arp.ipv4.Arp\""
par SingleCell_Standalone.router.ipv4.arp interfaceTableModule "\"SingleCell_Standalone.router.interfaceTable\""
par SingleCell_Standalone.router.ipv4.arp routingTableModule "\"SingleCell_Standalone.router.ipv4.routingTable\""
par SingleCell_Standalone.router.ipv4.arp retryTimeout 1s
attr unit s
par SingleCell_Standalone.router.ipv4.arp retryCount 3
par SingleCell_Standalone.router.ipv4.arp cacheTimeout 120s
attr unit s
par SingleCell_Standalone.router.ipv4.arp proxyArpInterfaces "\"*\""
scalar SingleCell_Standalone.router.ipv4.arp arpResolutionFailed:count 0
attr recordingmode count
attr title "ARP failed resolutions, count"
scalar SingleCell_Standalone.router.ipv4.arp arpResolutionCompleted:count 0
attr recordingmode count
attr title "ARP completed resolutions, count"
scalar SingleCell_Standalone.router.ipv4.arp arpResolutionInitiated:count 0
attr recordingmode count
[...]
attr title "packet drops: no carrier, sum(packetBytes)"
par SingleCell_Standalone.ue[4].encap typename "\"inet.linklayer.ethernet.basic.EthernetEncapsulation\""
par SingleCell_Standalone.ue[4].encap registerProtocol true
par SingleCell_Standalone.ue[4].encap interfaceTableModule "\"SingleCell_Standalone.ue[4].interfaceTable\""
par SingleCell_Standalone.ue[4].encap fcsMode "\"declared\""
attr enum declared,computed
par SingleCell_Standalone.ue[4].encap stopOperationExtraTime -1s
attr unit s
par SingleCell_Standalone.ue[4].encap stopOperationTimeout 2s
attr unit s
scalar SingleCell_Standalone.ue[4].encap pauseSent:count 0
attr recordingmode count
attr title "pause sent, count"
scalar SingleCell_Standalone.ue[4].encap pauseSent:sum 0
attr recordingmode sum
attr title "pause sent, sum"
scalar SingleCell_Standalone.ue[4].encap decapPk:count 0
attr interpolationmode none
attr recordingmode count
attr source decapPk
attr title "packets decapsulated, count"
scalar SingleCell_Standalone.ue[4].encap decapPk:sum(packetBytes) 0
attr interpolationmode none
attr recordingmode sum(packetBytes)
attr source decapPk
attr title "packets decapsulated, sum(packetBytes)"
scalar SingleCell_Standalone.ue[4].encap encapPk:count 0
attr interpolationmode none
attr recordingmode count
attr source encapPk
attr title "packets encapsulated, count"
scalar SingleCell_Standalone.ue[4].encap encapPk:sum(packetBytes) 0
attr interpolationmode none
attr recordingmode sum(packetBytes)
attr source encapPk
attr title "packets encapsulated, sum(packetBytes)"
par SingleCell_Standalone.ue[4].ipv4.transportIn.channel typename "\"ned.IdealChannel\""
par SingleCell_Standalone.ue[4].ipv4.up.out[0].channel typename "\"ned.IdealChannel\""
par SingleCell_Standalone.ue[4].ipv4.lp.out[2].channel typename "\"ned.IdealChannel\""
par SingleCell_Standalone.ue[4].ipv4.ifIn.channel typename "\"ned.IdealChannel\""
par SingleCell_Standalone.ue[4].ipv4.configurator typename "\"inet.networklayer.configurator.ipv4.Ipv4NodeConfigurator\""
par SingleCell_Standalone.ue[4].ipv4.configurator interfaceTableModule "\"SingleCell_Standalone.ue[4].interfaceTable\""
par SingleCell_Standalone.ue[4].ipv4.configurator routingTableModule "\"SingleCell_Standalone.ue[4].ipv4.routingTable\""
par SingleCell_Standalone.ue[4].ipv4.configurator networkConfiguratorModule "\"configurator\""
par SingleCell_Standalone.ue[4].ipv4.configurator configureRoutingTable true
par SingleCell_Standalone.ue[4].ipv4.routingTable typename "\"inet.networklayer.ipv4.Ipv4RoutingTable\""
par SingleCell_Standalone.ue[4].ipv4.routingTable interfaceTableModule "\"SingleCell_Standalone.ue[4].interfaceTable\""
par SingleCell_Standalone.ue[4].ipv4.routingTable routerId "\"auto\""
par SingleCell_Standalone.ue[4].ipv4.routingTable netmaskRoutes "\"*\""
par SingleCell_Standalone.ue[4].ipv4.routingTable forwarding false
par SingleCell_Standalone.ue[4].ipv4.routingTable multicastForwarding false
par SingleCell_Standalone.ue[4].ipv4.routingTable useAdminDist false
par SingleCell_Standalone.ue[4].ipv4.routingTable routingFile "\"\""
par SingleCell_Standalone.ue[4].ipv4.natTable typename "\"inet.networklayer.ipv4.Ipv4NatTable\""
par SingleCell_Standalone.ue[4].ipv4.natTable networkProtocolModule "\"^.ip\""
par SingleCell_Standalone.ue[4].ipv4.natTable config "<config/> at content:1"
par SingleCell_Standalone.ue[4].ipv4.up typename "\"inet.common.MessageDispatcher\""
par SingleCell_Standalone.ue[4].ipv4.up displayStringTextFormat "\"processed %p pk (%l)\""
par SingleCell_Standalone.ue[4].ipv4.up forwardServiceRegistration true
par SingleCell_Standalone.ue[4].ipv4.up forwardProtocolRegistration true
par SingleCell_Standalone.ue[4].ipv4.igmp typename "\"inet.networklayer.ipv4.Igmpv2\""
par SingleCell_Standalone.ue[4].ipv4.igmp interfaceTableModule "\"SingleCell_Standalone.ue[4].interfaceTable\""
par SingleCell_Standalone.ue[4].ipv4.igmp routingTableModule "\"SingleCell_Standalone.ue[4].ipv4.routingTable\""
par SingleCell_Standalone.ue[4].ipv4.igmp crcMode "\"declared\""
attr enum declared,computed
par SingleCell_Standalone.ue[4].ipv4.igmp enabled true
par SingleCell_Standalone.ue[4].ipv4.igmp robustnessVariable 2
par SingleCell_Standalone.ue[4].ipv4.igmp queryInterval 125s
attr unit s
par SingleCell_Standalone.ue[4].ipv4.igmp queryResponseInterval 10s
attr unit s
par SingleCell_Standalone.ue[4].ipv4.igmp groupMembershipInterval 260s
attr unit s
par SingleCell_Standalone.ue[4].ipv4.igmp otherQuerierPresentInterval 255s
attr unit s
par SingleCell_Standalone.ue[4].ipv4.igmp startupQueryInterval 31.25s
attr unit s
par SingleCell_Standalone.ue[4].ipv4.igmp startupQueryCount 2
par SingleCell_Standalone.ue[4].ipv4.igmp lastMemberQueryInterval 1s
attr unit s
par SingleCell_Standalone.ue[4].ipv4.igmp lastMemberQueryCount 2
par SingleCell_Standalone.ue[4].ipv4.igmp unsolicitedReportInterval 10s
attr unit s
par SingleCell_Standalone.ue[4].ipv4.icmp typename "\"inet.networklayer.ipv4.Icmp\""
par SingleCell_Standalone.ue[4].ipv4.icmp interfaceTableModule "\"SingleCell_Standalone.ue[4].interfaceTable\""
par SingleCell_Standalone.ue[4].ipv4.icmp routingTableModule "\"SingleCell_Standalone.ue[4].ipv4.routingTable\""
par SingleCell_Standalone.ue[4].ipv4.icmp crcMode "\"declared\""
attr enum declared,computed
attr mutable ""
par SingleCell_Standalone.ue[4].ipv4.icmp quoteLength 8B
attr mutable ""
attr unit B
par SingleCell_Standalone.ue[4].ipv4.mp typename "\"inet.common.MessageDispatcher\""
par SingleCell_Standalone.ue[4].ipv4.mp displayStringTextFormat "\"processed %p pk (%l)\""
par SingleCell_Standalone.ue[4].ipv4.mp forwardServiceRegistration true
par SingleCell_Standalone.ue[4].ipv4.mp forwardProtocolRegistration true
par SingleCell_Standalone.ue[4].ipv4.ip typename "\"inet.networklayer.ipv4.Ipv4\""
par SingleCell_Standalone.ue[4].ipv4.ip interfaceTableModule "\"SingleCell_Standalone.ue[4].interfaceTable\""
par SingleCell_Standalone.ue[4].ipv4.ip routingTableModule "\"SingleCell_Standalone.ue[4].ipv4.routingTable\""
par SingleCell_Standalone.ue[4].ipv4.ip arpModule "\"SingleCell_Standalone.ue[4].ipv4.arp\""
par SingleCell_Standalone.ue[4].ipv4.ip icmpModule "\"SingleCell_Standalone.ue[4].ipv4.icmp\""
par SingleCell_Standalone.ue[4].ipv4.ip crcMode "\"declared\""
attr enum declared,computed
par SingleCell_Standalone.ue[4].ipv4.ip timeToLive 32
par SingleCell_Standalone.ue[4].ipv4.ip multicastTimeToLive 32
par SingleCell_Standalone.ue[4].ipv4.ip fragmentTimeout 60s
attr unit s
par SingleCell_Standalone.ue[4].ipv4.ip limitedBroadcast false
par SingleCell_Standalone.ue[4].ipv4.ip directBroadcastInterfaces "\"\""
scalar SingleCell_Standalone.ue[4].ipv4.ip packetDropAddressResolutionFailed:count 0
attr interpolationmode none
attr recordingmode count
attr source packetDropReasonIsAddressResolutionFailed(packetDropped)
attr title "packet drop: address resolution failed, count"
scalar SingleCell_Standalone.ue[4].ipv4.ip packetDropAddressResolutionFailed:sum(packetBytes) 0
attr interpolationmode none
attr recordingmode sum(packetBytes)
attr source packetDropReasonIsAddressResolutionFailed(packetDropped)
attr title "packet drop: address resolution failed, sum(packetBytes)"
scalar SingleCell_Standalone.ue[4].ipv4.ip packetDropHopLimitReached:count 0
attr interpolationmode none
attr recordingmode count
attr source packetDropReasonIsHopLimitReached(packetDropped)
attr title "packet drop: hop limit reached, count"
scalar SingleCell_Standalone.ue[4].ipv4.ip packetDropHopLimitReached:sum(packetBytes) 0
attr interpolationmode none
attr recordingmode sum(packetBytes)
attr source packetDropReasonIsHopLimitReached(packetDropped)
attr title "packet drop: hop limit reached, sum(packetBytes)"
scalar SingleCell_Standalone.ue[4].ipv4.ip packetDropForwardingDisabled:count 0
attr interpolationmode none
attr recordingmode count
attr source packetDropReasonIsForwardingDisabled(packetDropped)
attr title "packet drop: forwarding disabled, count"
scalar SingleCell_Standalone.ue[4].ipv4.ip packetDropForwardingDisabled:sum(packetBytes) 0
attr interpolationmode none
attr recordingmode sum(packetBytes)
attr source packetDropReasonIsForwardingDisabled(packetDropped)
attr title "packet drop: forwarding disabled, sum(packetBytes)"
scalar SingleCell_Standalone.ue[4].ipv4.ip packetDropNoInterfaceFound:count 0
attr interpolationmode none
attr recordingmode count
attr source packetDropReasonIsNoInterfaceFound(packetDropped)
attr title "packet drop: no interface found, count"
scalar SingleCell_Standalone.ue[4].ipv4.ip packetDropNoInterfaceFound:sum(packetBytes) 0
attr interpolationmode none
attr recordingmode sum(packetBytes)
attr source packetDropReasonIsNoInterfaceFound(packetDropped)
attr title "packet drop: no interface found, sum(packetBytes)"
scalar SingleCell_Standalone.ue[4].ipv4.ip packetDropNoRouteFound:count 0
attr interpolationmode none
attr recordingmode count
attr source packetDropReasonIsNoRouteFound(packetDropped)
attr title "packet drop: no route found, count"
scalar SingleCell_Standalone.ue[4].ipv4.ip packetDropNoRouteFound:sum(packetBytes) 0
attr interpolationmode none
attr recordingmode sum(packetBytes)
attr source packetDropReasonIsNoRouteFound(packetDropped)
attr title "packet drop: no route found, sum(packetBytes)"
scalar SingleCell_Standalone.ue[4].ipv4.ip packetDropUndefined:count 0
attr interpolationmode none
attr recordingmode count
attr source packetDropReasonIsUndefined(packetDropped)
attr title "packet drop: undefined, count"
scalar SingleCell_Standalone.ue[4].ipv4.ip packetDropUndefined:sum(packetBytes) 0
attr interpolationmode none
attr recordingmode sum(packetBytes)
attr source packetDropReasonIsUndefined(packetDropped)
attr title "packet drop: undefined, sum(packetBytes)"
par SingleCell_Standalone.ue[4].ipv4.arp typename "\"inet.networklayer.arp.ipv4.Arp\""
par SingleCell_Standalone.ue[4].ipv4.arp interfaceTableModule "\"SingleCell_Standalone.ue[4].interfaceTable\""
par SingleCell_Standalone.ue[4].ipv4.arp routingTableModule "\"SingleCell_Standalone.ue[4].ipv4.routingTable\""
par SingleCell_Standalone.ue[4].ipv4.arp retryTimeout 1s
attr unit s
par SingleCell_Standalone.ue[4].ipv4.arp retryCount 3
par SingleCell_Standalone.ue[4].ipv4.arp cacheTimeout 120s
attr unit s
par SingleCell_Standalone.ue[4].ipv4.arp proxyArpInterfaces "\"*\""
scalar SingleCell_Standalone.ue[4].ipv4.arp arpResolutionFailed:count 0
attr recordingmode count
attr title "ARP failed resolutions, count"
scalar SingleCell_Standalone.ue[4].ipv4.arp arpResolutionCompleted:count 0
attr recordingmode count
attr title "ARP completed resolutions, count"
scalar SingleCell_Standalone.ue[4].ipv4.arp arpResolutionInitiated:count 0
attr recordingmode count
attr title "ARP initiated resolutions, count"
scalar SingleCell_Standalone.ue[4].ipv4.arp arpReplySent:count 0
attr recordingmode count
attr source arpReplySent
attr title "ARP replies sent, count"
scalar SingleCell_Standalone.ue[4].ipv4.arp arpReplySent:sum(packetBytes) 0
attr recordingmode sum(packetBytes)
attr source arpReplySent
attr title "ARP replies sent, sum(packetBytes)"
scalar SingleCell_Standalone.ue[4].ipv4.arp arpRequestSent:count 0
attr recordingmode count
attr source arpRequestSent
attr title "ARP request sent, count"
scalar SingleCell_Standalone.ue[4].ipv4.arp arpRequestSent:sum(packetBytes) 0
attr recordingmode sum(packetBytes)
attr source arpRequestSent
attr title "ARP request sent, sum(packetBytes)"
par SingleCell_Standalone.ue[4].ipv4.lp typename "\"inet.common.MessageDispatcher\""
par SingleCell_Standalone.ue[4].ipv4.lp displayStringTextFormat "\"processed %p pk (%l)\""
par SingleCell_Standalone.ue[4].ipv4.lp forwardServiceRegistration true
par SingleCell_Standalone.ue[4].ipv4.lp forwardProtocolRegistration true
par SingleCell_Standalone.ue[4].ipv4 typename "\"inet.networklayer.ipv4.Ipv4NetworkLayer\""
par SingleCell_Standalone.ue[4].ipv4 forwarding false
par SingleCell_Standalone.ue[4].ipv4 multicastForwarding false
par SingleCell_Standalone.ue[4].ipv4 interfaceTableModule "\"SingleCell_Standalone.ue[4].interfaceTable\""
par SingleCell_Standalone.ue[4].ipv4 displayStringTextFormat "\"%i\""
par SingleCell_Standalone.ue[4].udp typename "\"inet.transportlayer.udp.Udp\""
par SingleCell_Standalone.ue[4].udp interfaceTableModule "\"SingleCell_Standalone.ue[4].interfaceTable\""
par SingleCell_Standalone.ue[4].udp icmpModule "\"^.ipv4.icmp\""
par SingleCell_Standalone.ue[4].udp icmpv6Module "\"^.ipv6.icmpv6\""
par SingleCell_Standalone.ue[4].udp crcMode "\"declared\""
attr enum disabled,declared,computed
par SingleCell_Standalone.ue[4].udp defaultMulticastLoop true
scalar SingleCell_Standalone.ue[4].udp packetReceived:count 2911
attr interpolationmode none
attr recordingmode count
attr source packetReceived
attr title "packets received, count"
scalar SingleCell_Standalone.ue[4].udp packetReceived:sum(packetBytes) 2934288
attr interpolationmode none
attr recordingmode sum(packetBytes)
attr source packetReceived
attr title "packets received, sum(packetBytes)"
scalar SingleCell_Standalone.ue[4].udp packetSent:count 0
attr interpolationmode none
attr recordingmode count
attr source packetSent
attr title "packets sent, count"
scalar SingleCell_Standalone.ue[4].udp packetSent:sum(packetBytes) 0
attr interpolationmode none
attr recordingmode sum(packetBytes)
attr source packetSent
attr title "packets sent, sum(packetBytes)"
scalar SingleCell_Standalone.ue[4].udp passedUpPk:count 2911
attr interpolationmode none
attr recordingmode count
attr source packetSentToUpper
attr title "packets passed up, count"
scalar SingleCell_Standalone.ue[4].udp droppedPkWrongPort:count 0
attr interpolationmode none
attr recordingmode count
attr source packetDropReasonIsNoPortFound(packetDropped)
attr title "packets dropped (wrong port), count"
scalar SingleCell_Standalone.ue[4].udp droppedPkBadChecksum:count 0
attr interpolationmode none
attr recordingmode count
attr source packetDropReasonIsIncorrectlyReceived(packetDropped)
attr title "packets dropped (checksum error), count"
par SingleCell_Standalone.ue[4].tcp typename "\"inet.transportlayer.tcp.Tcp\""
par SingleCell_Standalone.ue[4].tcp crcMode "\"declared\""
attr enum declared,computed
par SingleCell_Standalone.ue[4].tcp advertisedWindow 7504
par SingleCell_Standalone.ue[4].tcp delayedAcksEnabled false
par SingleCell_Standalone.ue[4].tcp nagleEnabled true
par SingleCell_Standalone.ue[4].tcp limitedTransmitEnabled false
par SingleCell_Standalone.ue[4].tcp increasedIWEnabled false
par SingleCell_Standalone.ue[4].tcp sackSupport false
par SingleCell_Standalone.ue[4].tcp windowScalingSupport false
par SingleCell_Standalone.ue[4].tcp windowScalingFactor -1
par SingleCell_Standalone.ue[4].tcp timestampSupport false
par SingleCell_Standalone.ue[4].tcp mss 536
par SingleCell_Standalone.ue[4].tcp msl 120s
attr unit s
par SingleCell_Standalone.ue[4].tcp tcpAlgorithmClass "\"TcpReno\""
attr enum TcpVegas,TcpWestwood,TcpNewReno,TcpReno,TcpTahoe,TcpNoCongestionControl
par SingleCell_Standalone.ue[4].tcp useDataNotification false
par SingleCell_Standalone.ue[4].tcp dupthresh 3
par SingleCell_Standalone.ue[4].tcp initialSsthresh 4294967295
par SingleCell_Standalone.ue[4].tcp stopOperationExtraTime 0s
attr unit s
par SingleCell_Standalone.ue[4].tcp stopOperationTimeout 2s
attr unit s
par SingleCell_Standalone.ue[4].tcp ecnWillingness false
par SingleCell_Standalone.ue[4].tcp dctcpGamma 0.0625
par SingleCell_Standalone.ue[4].app[0] typename "\"inet.applications.udpapp.UdpVideoStreamClient\""
par SingleCell_Standalone.ue[4].app[0] localPort 9999
par SingleCell_Standalone.ue[4].app[0] serverAddress "\"server\""
par SingleCell_Standalone.ue[4].app[0] serverPort 3088
par SingleCell_Standalone.ue[4].app[0] startTime 0.00732654s
attr unit s
par SingleCell_Standalone.ue[4].app[0] stopOperationExtraTime -1s
attr unit s
par SingleCell_Standalone.ue[4].app[0] stopOperationTimeout 2s
attr unit s
scalar SingleCell_Standalone.ue[4].app[0] packetReceived:count 2911
attr interpolationmode none
attr recordingmode count
attr source packetReceived
attr title "packets received, count"
scalar SingleCell_Standalone.ue[4].app[0] packetReceived:sum(packetBytes) 2911000
attr interpolationmode none
attr recordingmode sum(packetBytes)
attr source packetReceived
attr title "packets received, sum(packetBytes)"
statistic SingleCell_Standalone.ue[4].app[0] endToEndDelay:histogram
field count 2911
field mean 0.010837082482171
field stddev 0.0081053235145819
field min 0.0059995696
field max 0.1049995696
field sum 31.5467471056
field sqrsum 0.53305084402085
attr interpolationmode none
attr recordingmode histogram
attr source dataAge(packetReceived)
attr title "end-to-end delay"
attr unit s
bin	-inf	0
bin	0.0049	372
bin	0.0061	612
bin	0.0073	294
bin	0.0085	181
bin	0.0097	463
bin	0.0109	437
bin	0.0121	196
bin	0.0133	98
bin	0.0145	33
bin	0.0157	21
bin	0.0169	31
bin	0.0181	16
bin	0.0193	9
bin	0.0205	24
bin	0.0217	10
bin	0.0229	20
bin	0.0241	7
bin	0.0253	6
bin	0.0265	1
bin	0.0277	1
bin	0.0289	2
bin	0.0301	7
bin	0.0313	10
bin	0.0325	3
bin	0.0337	3
bin	0.0349	1
bin	0.0361	0
bin	0.0373	0
bin	0.0385	0
bin	0.0397	1
bin	0.0409	1
bin	0.0421	0
bin	0.0433	0
bin	0.0445	1
bin	0.0457	1
bin	0.0469	0
bin	0.0481	2
bin	0.0493	0
bin	0.0505	7
bin	0.0517	10
bin	0.0529	6
bin	0.0541	1
bin	0.0553	0
bin	0.0565	0
bin	0.0577	0
bin	0.0589	0
bin	0.0601	0
bin	0.0613	0
bin	0.0625	0
bin	0.0637	0
bin	0.0649	2
bin	0.0661	0
bin	0.0673	0
bin	0.0685	2
bin	0.0697	0
bin	0.0709	13
bin	0.0721	2
bin	0.0733	1
bin	0.0745	0
bin	0.0757	0
bin	0.0769	0
bin	0.0781	0
bin	0.0793	0
bin	0.0805	0
bin	0.0817	0
bin	0.0829	0
bin	0.0841	1
bin	0.0853	0
bin	0.0865	0
bin	0.0877	0
bin	0.0889	0
bin	0.0901	0
bin	0.0913	0
bin	0.0925	1
bin	0.0937	0
bin	0.0949	0
bin	0.0961	0
bin	0.0973	0
bin	0.0985	0
bin	0.0997	0
bin	0.1009	0
bin	0.1021	0
bin	0.1033	0
bin	0.1045	1
bin	0.1057	0
par SingleCell_Standalone.ue[4].at typename "\"inet.common.MessageDispatcher\""
par SingleCell_Standalone.ue[4].at displayStringTextFormat "\"processed %p pk (%l)\""
par SingleCell_Standalone.ue[4].at forwardServiceRegistration true
par SingleCell_Standalone.ue[4].at forwardProtocolRegistration true
par SingleCell_Standalone.ue[4].tn typename "\"inet.common.MessageDispatcher\""
par SingleCell_Standalone.ue[4].tn displayStringTextFormat "\"processed %p pk (%l)\""
par SingleCell_Standalone.ue[4].tn forwardServiceRegistration true
par SingleCell_Standalone.ue[4].tn forwardProtocolRegistration true
par SingleCell_Standalone.ue[4].nl typename "\"inet.common.MessageDispatcher\""
par SingleCell_Standalone.ue[4].nl displayStringTextFormat "\"processed %p pk (%l)\""
par SingleCell_Standalone.ue[4].nl forwardServiceRegistration true
par SingleCell_Standalone.ue[4].nl forwardProtocolRegistration true
par SingleCell_Standalone.ue[4] typename "\"simu5g.nodes.NR.NRUe\""
par SingleCell_Standalone.ue[4] numApps 1
par SingleCell_Standalone.ue[4] hasUdp true
par SingleCell_Standalone.ue[4] hasTcp true
par SingleCell_Standalone.ue[4] hasSctp false
par SingleCell_Standalone.ue[4] nodeType "\"UE\""
par SingleCell_Standalone.ue[4] masterId 0
attr mutable ""
par SingleCell_Standalone.ue[4] macNodeId 1029
attr mutable ""
par SingleCell_Standalone.ue[4] macCellId 0
attr mutable ""
par SingleCell_Standalone.ue[4] nicType "\"NRNicUe\""
par SingleCell_Standalone.ue[4] hasIpv4 true
par SingleCell_Standalone.ue[4] hasIpv6 false
par SingleCell_Standalone.ue[4] numEthInterfaces 0
par SingleCell_Standalone.ue[4] extHostAddress "\"\""
par SingleCell_Standalone.ue[4] numLoInterfaces 1
par SingleCell_Standalone.ue[4] numPcapRecorders 0
par SingleCell_Standalone.ue[4] hasRNISupport false
par SingleCell_Standalone.ue[4] nrMasterId 1
attr mutable ""
par SingleCell_Standalone.ue[4] nrMacNodeId 2053
attr mutable ""
par SingleCell_Standalone.ue[4] nrMacCellId 1
attr mutable ""
par SingleCell_Standalone typename "\"simu5g.simulations.NR.networks.SingleCell_Standalone\""
par SingleCell_Standalone numUe 5
par SingleCell_Standalone numBgCells 0

